
     RDKit          2D

 53 56  0  0  1  0  0  0  0  0999 V2000
   17.5301   -5.5000    0.0000 O   0  0  0  0  0  0  0  0  0  0  0  0
   16.8157   -6.7375    0.0000 O   0  0  0  0  0  0  0  0  0  0  0  0
   14.6722   -5.5000    0.0000 O   0  0  0  0  0  0  0  0  0  0  0  0
   20.3880   -7.1500    0.0000 O   0  0  0  0  0  0  0  0  0  0  0  0
   19.6736   -5.9125    0.0000 O   0  0  0  0  0  0  0  0  0  0  0  0
   22.5316   -5.9125    0.0000 O   0  0  0  0  0  0  0  0  0  0  0  0
   14.6722   -7.1500    0.0000 O   0  0  0  0  0  0  0  0  0  0  0  0
   13.9577   -6.7375    0.0000 O   0  0  0  0  0  0  0  0  0  0  0  0
   17.5301   -7.1500    0.0000 O   0  0  0  0  0  0  0  0  0  0  0  0
   18.9591   -7.9750    0.0000 O   0  0  0  0  0  0  0  0  0  0  0  0
   20.3880   -5.5000    0.0000 O   0  0  0  0  0  0  0  0  0  0  0  0
   13.2432   -4.6750    0.0000 O   0  0  0  0  0  0  0  0  0  0  0  0
   23.2460   -7.1500    0.0000 O   0  0  0  0  0  0  0  0  0  0  0  0
   16.8157   -8.3875    0.0000 O   0  0  0  0  0  0  0  0  0  0  0  0
   11.8142   -5.5000    0.0000 O   0  0  0  0  0  0  0  0  0  0  0  0
   11.8142   -7.1500    0.0000 O   0  0  0  0  0  0  0  0  0  0  0  0
   19.6736   -4.2625    0.0000 O   0  0  0  0  0  0  0  0  0  0  0  0
   22.5316   -4.2625    0.0000 O   0  0  0  0  0  0  0  0  0  0  0  0
   18.2447   -4.2625    0.0000 O   0  0  0  0  0  0  0  0  0  0  0  0
   17.5301   -4.6750    0.0000 O   0  0  0  0  0  0  0  0  0  0  0  0
   12.5288   -8.3875    0.0000 O   0  0  0  0  0  0  0  0  0  0  0  0
   13.9577   -8.3875    0.0000 O   0  0  0  0  0  0  0  0  0  0  0  0
   22.5316   -9.2126    0.0000 O   0  0  0  0  0  0  0  0  0  0  0  0
   16.1012   -4.6750    0.0000 N   0  0  0  0  0  0  0  0  0  0  0  0
   21.8171   -7.9750    0.0000 N   0  0  0  0  0  0  0  0  0  0  0  0
   15.3867   -5.9125    0.0000 C   0  0  0  0  0  0  0  0  0  0  0  0
   16.1012   -5.5000    0.0000 C   0  0  0  0  0  0  0  0  0  0  0  0
   16.8157   -5.9125    0.0000 C   0  0  0  0  0  0  0  0  0  0  0  0
   15.3867   -6.7375    0.0000 C   0  0  0  0  0  0  0  0  0  0  0  0
   18.2447   -5.9125    0.0000 C   0  0  0  0  0  0  0  0  0  0  0  0
   16.1012   -7.1500    0.0000 C   0  0  0  0  0  0  0  0  0  0  0  0
   18.2447   -6.7375    0.0000 C   0  0  0  0  0  0  0  0  0  0  0  0
   18.9591   -7.1500    0.0000 C   0  0  0  0  0  0  0  0  0  0  0  0
   21.1026   -6.7375    0.0000 C   0  0  0  0  0  0  0  0  0  0  0  0
   19.6736   -6.7375    0.0000 C   0  0  0  0  0  0  0  0  0  0  0  0
   18.9591   -5.5000    0.0000 C   0  0  0  0  0  0  0  0  0  0  0  0
   21.8171   -7.1500    0.0000 C   0  0  0  0  0  0  0  0  0  0  0  0
   21.1026   -5.9125    0.0000 C   0  0  0  0  0  0  0  0  0  0  0  0
   13.9577   -5.9125    0.0000 C   0  0  0  0  0  0  0  0  0  0  0  0
   21.8171   -5.5000    0.0000 C   0  0  0  0  0  0  0  0  0  0  0  0
   13.2432   -5.5000    0.0000 C   0  0  0  0  0  0  0  0  0  0  0  0
   22.5316   -6.7375    0.0000 C   0  0  0  0  0  0  0  0  0  0  0  0
   16.1012   -7.9750    0.0000 C   0  0  0  0  0  0  0  0  0  0  0  0
   12.5288   -5.9125    0.0000 C   0  0  0  0  0  0  0  0  0  0  0  0
   12.5288   -6.7375    0.0000 C   0  0  0  0  0  0  0  0  0  0  0  0
   13.2432   -7.1500    0.0000 C   0  0  0  0  0  0  0  0  0  0  0  0
   18.9591   -4.6750    0.0000 C   0  0  0  0  0  0  0  0  0  0  0  0
   21.8171   -4.6750    0.0000 C   0  0  0  0  0  0  0  0  0  0  0  0
   16.8157   -4.2625    0.0000 C   0  0  0  0  0  0  0  0  0  0  0  0
   13.2432   -7.9750    0.0000 C   0  0  0  0  0  0  0  0  0  0  0  0
   22.5316   -8.3875    0.0000 C   0  0  0  0  0  0  0  0  0  0  0  0
   16.8157   -3.4375    0.0000 C   0  0  0  0  0  0  0  0  0  0  0  0
   23.2460   -7.9750    0.0000 C   0  0  0  0  0  0  0  0  0  0  0  0
 28  1  1  6
 30  1  1  6
  2 28  1  0
  2 31  1  0
  3 26  1  0
 39  3  1  6
  4 34  1  0
 35  4  1  1
  5 35  1  0
  5 36  1  0
  6 40  1  0
  6 42  1  0
 29  7  1  1
  8 39  1  0
  8 46  1  0
 32  9  1  1
 33 10  1  6
 38 11  1  6
 41 12  1  1
 42 13  1  1
 14 43  1  0
 44 15  1  6
 45 16  1  1
 17 47  1  0
 18 48  1  0
 19 47  2  0
 20 49  2  0
 21 50  1  0
 22 50  2  0
 23 51  2  0
 27 24  1  1
 24 49  1  0
 37 25  1  6
 25 51  1  0
 26 27  1  0
 26 29  1  0
 27 28  1  0
 29 31  1  0
 30 32  1  0
 30 36  1  0
 31 43  1  6
 32 33  1  0
 33 35  1  0
 34 37  1  0
 34 38  1  0
 36 47  1  1
 37 42  1  0
 38 40  1  0
 39 41  1  0
 40 48  1  1
 41 44  1  0
 44 45  1  0
 45 46  1  0
 46 50  1  6
 49 52  1  0
 51 53  1  0
M  END
>  <DATABASE_ID>  (1) 
DB08818

>  <DATABASE_NAME>  (1) 
drugbank

>  <SMILES>  (1) 
CC(=O)N[C@H]1[C@H](O)O[C@H](CO)[C@@H](O)C1O[C@@H]1O[C@@H]([C@@H](O[C@@H]2O[C@H](CO)[C@@H](O)C(O[C@@H]3O[C@@H]([C@@H](O)[C@H](O)[C@H]3O)C(O)=O)[C@H]2NC(C)=O)[C@H](O)[C@H]1O)C(O)=O

>  <INCHI_IDENTIFIER>  (1) 
InChI=1S/C28H44N2O23/c1-5(33)29-9-18(11(35)7(3-31)47-25(9)46)49-28-17(41)15(39)20(22(53-28)24(44)45)51-26-10(30-6(2)34)19(12(36)8(4-32)48-26)50-27-16(40)13(37)14(38)21(52-27)23(42)43/h7-22,25-28,31-32,35-41,46H,3-4H2,1-2H3,(H,29,33)(H,30,34)(H,42,43)(H,44,45)/t7-,8-,9-,10-,11-,12-,13+,14+,15-,16-,17-,18?,19?,20+,21+,22+,25-,26+,27-,28-/m1/s1

>  <INCHI_KEY>  (1) 
KIUKXJAPPMFGSW-MNSSHETKSA-N

>  <FORMULA>  (1) 
C28H44N2O23

>  <MOLECULAR_WEIGHT>  (1) 
776.6486

>  <EXACT_MASS>  (1) 
776.233485724

>  <JCHEM_ACCEPTOR_COUNT>  (1) 
23

>  <JCHEM_ATOM_COUNT>  (1) 
97

>  <JCHEM_AVERAGE_NEUTRAL_MICROSPECIES_CHARGE>  (1) 
-1.9998636522478956

>  <JCHEM_AVERAGE_POLARIZABILITY>  (1) 
71.14244566716306

>  <JCHEM_BIOAVAILABILITY>  (1) 
0

>  <JCHEM_DONOR_COUNT>  (1) 
14

>  <JCHEM_FORMAL_CHARGE>  (1) 
0

>  <JCHEM_GHOSE_FILTER>  (1) 
0

>  <JCHEM_IUPAC>  (1) 
(2S,3S,4R,5R,6R)-3-{[(2S,3R,5S,6R)-4-{[(2R,3R,4S,5S,6S)-6-carboxy-3,4,5-trihydroxyoxan-2-yl]oxy}-3-acetamido-5-hydroxy-6-(hydroxymethyl)oxan-2-yl]oxy}-6-{[(2R,3R,5S,6R)-3-acetamido-2,5-dihydroxy-6-(hydroxymethyl)oxan-4-yl]oxy}-4,5-dihydroxyoxane-2-carboxylic acid

>  <ALOGPS_LOGP>  (1) 
-1.82

>  <JCHEM_LOGP>  (1) 
-8.180567466333333

>  <ALOGPS_LOGS>  (1) 
-1.22

>  <JCHEM_MDDR_LIKE_RULE>  (1) 
1

>  <JCHEM_NEUTRAL_CHARGE>  (1) 
-2

>  <JCHEM_NUMBER_OF_RINGS>  (1) 
4

>  <JCHEM_PHYSIOLOGICAL_CHARGE>  (1) 
-2

>  <JCHEM_PKA>  (1) 
3.4811016614643866

>  <JCHEM_PKA_STRONGEST_ACIDIC>  (1) 
2.8739305226331164

>  <JCHEM_PKA_STRONGEST_BASIC>  (1) 
-3.9487263337750194

>  <JCHEM_POLAR_SURFACE_AREA>  (1) 
399.7099999999999

>  <JCHEM_REFRACTIVITY>  (1) 
155.10069999999996

>  <JCHEM_ROTATABLE_BOND_COUNT>  (1) 
12

>  <JCHEM_RULE_OF_FIVE>  (1) 
0

>  <ALOGPS_SOLUBILITY>  (1) 
4.66e+01 g/l

>  <JCHEM_TRADITIONAL_IUPAC>  (1) 
tetrahydrofolic acid

>  <JCHEM_VEBER_RULE>  (1) 
0

>  <DRUGBANK_ID>  (1) 
DB08818

>  <DRUG_GROUPS>  (1) 
approved; investigational; vet_approved

>  <GENERIC_NAME>  (1) 
Hyaluronic acid

>  <SYNONYMS>  (1) 
Hyaluronan; Hyaluronate; Hyaluronic acid

>  <PRODUCTS>  (1) 
ACTS38 BoswelliaGel; ACTS38 BoswelliaGel (100ml); Acnepatch; Acropass Trouble Cure; Anbiser B-HA HYALURONIC ACID MOISTURIZING; Anbiser B-HA Hyaluronic Acid Nourishing; Anbiser B-HA Hyaluronic Acid Nourishing Conditioner; Anti-Aging Serum; Asbello Vaginal; Ascorbyl Palmitate 2% / Hyaluronic Acid Sodium Salt 0.2% / Niacinamide 5% / Tretinoin 0.025%; C-eye Day; C-eye Night; Calcipotriene 0.005% / Diclofenac Sodium 3% / Hyaluronic Acid Sodium Salt 2% / Niacinamide 2%; Centella Face Sunscreen; Clapiel Hyalon Serum; Cluederm Aqua Solution Rejuve Plus; Collagen Film; Conopeptide Deer Bone Collagen Nano Instant Essence Filling Set; Cotta; Cream; Curestin; Curithys; Dark Spot Removal Patch; Dark Spot Remover; Deepair Micro Intensive Magic; Derma Anti-Wrinkles; Derma Hand Repair; Derma Instant Youth; Derma Under Eye; Dr.plinus Fillincell Multi; Drop; E- Repair; ELDEEN AGE TWENTY ONE MifitPatch and Serum; Elcosys; Elcure Ato; Eldeen Age Twenty One Micro Therapy Program; Emulsion; Essence; Eye Gel; EyeOne Cleaner; EyeOne eyelid cleansing tools; Eyeone Cleaner; Facial Sunscreen; Ferulic Acid CE Skin Serum; Fluocinonide 0.05% / Hyaluronic Acid Sodium Salt 0.5% / Niacinamide 4%; Fs12; Funees; Gaezoa Cream; Gel; Gengicure; Gethorey MIRACLE BALM; Ginsamin Beauty; HOYGI Coffee Extract Eye Cream; HOYGI Retinol Eye Stick; HYLASE Wound; Hair Color Wax; Haruto Beauty Microneedle Acne Pimplepatch; HyGel; Hyalu B5 Serum; Hyaluron 3s Serum; Hyaluronic Acid; Hyaluronic Acid 60mg and Lidocaine 2% PF; Hyaluronic Acid Gel; Hyaluronic Acid Micro; Hyaluronic Acid Serum with Dropper; Hyaluronic Acid Sodium Salt 0.5% / Hydroquinone 4% / Tretinoin 0.05%; Hyaluronic Acid Sodium Salt 0.5% / Niacinamide 4% / Tretinoin 0.025%; Hyaluronic Acid Sodium Salt 0.5% / Niacinamide 4% / Tretinoin 0.05%; Hyaluronic Acid Sodium Salt 0.5% / Niacinamide 4% / Tretinoin 0.1%; Hyaluronic Acid Sodium Salt 0.5% / Tazarotene 0.05%; Hyaluronic Acid Sodium Salt 0.5% / Tazarotene 0.1%; Hyaluronic Acid Sodium Salt 1% / Hydroquinone 6%; Hyaluronic Acid Sodium Salt 1% / Niacinamide 4% / Tacrolimus 0.1%; Hyaluronic Acid Sodium Salt 1% / Tacrolimus 0.1% / Urea 20%; Hyaluronic Acid Sodium Salt 2% / Mometasone Furoate 0.1% / Niacinamide 4%; Hyaluronic Acid Watery Sun; Hydrating B5 serum; Hylinate; Im Fill; Intomedi First Ampoule Peptide; Jasbello Vaginal; Kaewoon for Men; Kaewoon for Women; Lbio Block Spf50; Le-Blen EGF Serum; Le-Blen FGF Serum; Le-Blen Nano Collagen Peptide Serum; Le-Blen Vitamin C Serum; Liquid; Lubricant Eye Drops; Maxclinic Hyaluronic Meso Change Roller; Miracle Aqua Peeling; Miracle Laser Mask; Moisture Cushion; Morisu; Niacinamide B3 Serum; Niacinamide Face Serum; OUHOE Retinol Collagen Complex Day Night Cream; Oil; PRO PH Filler; Patch; Pearsys; Personal Lubricant; PokePoke Patch; Powder; Ramosu Hyaluronic Acid Solution 100; Rapid Anti-Aging Reduction; Retinol Glow Serum; Retinol Skin Moisturizing; Retinol eye Cream; SHINE pH CLEANSING; SHINE pH ESSENCE; SHINE pH MOISTURE; Scar Restore Tearable Skin; Skin White Pro Strength Kojic and Hyaluronic Skin Lightening Serum; Sleeping Mask; Solid; Stick; The Skin House Hyaluronic 6000 Ampoule; Tinted Moisturizer; Ultra Protection Ultra Long-UVA; Vaginne Intimate Hygiene Wash; Vitamin C 15% (L- Ascorbic Acid); Vitamin C 25% (L- Ascorbic Acid); W.skin Hyaluronic Toner; WELLAGE Hyaluronic Acid Micro Needle; Water-Permeable Sunscreen; Wellage Family Mask Large; Wellage Family Mask Small; XR Cellular Magic; bdr Bio cell mask; bdr Laser Effect Peptide Complex Face Mask; bdr Stretch lift mask

>  <INTERNATIONAL_BRANDS>  (1) 
AMO Vitrax; AMVISIC Plus; Cystistar; Euflexxa; Hyalart; Hyalgan; Hylo-Comod; Legend; Monovisc; Recosyn; Synvisc; Viscure; Yardel

>  <SALTS>  (1) 
Hyaluronate sodium; Potassium hyaluronate; Sodium hyaluronate

$$$$
