4822
     RDKit          2D

 21 24  0  0  0  0  0  0  0  0999 V2000
    3.8493   -2.4606    0.0000 S   0  0  0  0  0  0  0  0  0  0  0  0
    3.8493    1.6642    0.0000 N   0  0  0  0  0  0  0  0  0  0  0  0
    3.8493    0.0142    0.0000 C   0  0  0  0  0  0  0  0  0  0  0  0
    3.1348    0.4267    0.0000 C   0  0  0  0  0  0  0  0  0  0  0  0
    4.5638    0.4267    0.0000 C   0  0  0  0  0  0  0  0  0  0  0  0
    3.1348    1.2517    0.0000 C   0  0  0  0  0  0  0  0  0  0  0  0
    4.5638    1.2517    0.0000 C   0  0  0  0  0  0  0  0  0  0  0  0
    3.8493   -0.8107    0.0000 C   0  0  0  0  0  0  0  0  0  0  0  0
    4.5638   -1.2231    0.0000 C   0  0  0  0  0  0  0  0  0  0  0  0
    3.1348   -1.2231    0.0000 C   0  0  0  0  0  0  0  0  0  0  0  0
    3.8493    2.4891    0.0000 C   0  0  0  0  0  0  0  0  0  0  0  0
    4.5638   -2.0481    0.0000 C   0  0  0  0  0  0  0  0  0  0  0  0
    3.1348   -2.0481    0.0000 C   0  0  0  0  0  0  0  0  0  0  0  0
    5.3012   -0.7820    0.0000 C   0  0  0  0  0  0  0  0  0  0  0  0
    2.3974   -0.7820    0.0000 C   0  0  0  0  0  0  0  0  0  0  0  0
    5.3012   -2.4891    0.0000 C   0  0  0  0  0  0  0  0  0  0  0  0
    2.3974   -2.4891    0.0000 C   0  0  0  0  0  0  0  0  0  0  0  0
    1.6499   -1.2060    0.0000 C   0  0  0  0  0  0  0  0  0  0  0  0
    6.0487   -1.2060    0.0000 C   0  0  0  0  0  0  0  0  0  0  0  0
    6.0487   -2.0653    0.0000 C   0  0  0  0  0  0  0  0  0  0  0  0
    1.6499   -2.0653    0.0000 C   0  0  0  0  0  0  0  0  0  0  0  0
  1 12  1  0
  1 13  1  0
  2  6  1  0
  2  7  1  0
  2 11  1  0
  3  4  1  0
  3  5  1  0
  3  8  2  0
  4  6  1  0
  5  7  1  0
  8  9  1  0
  8 10  1  0
  9 12  2  0
  9 14  1  0
 10 13  2  0
 10 15  1  0
 12 16  1  0
 13 17  1  0
 14 19  2  0
 15 18  2  0
 16 20  2  0
 17 21  2  0
 18 21  1  0
 19 20  1  0
M  END
>  <DATABASE_ID>  (1) 
DB13292

>  <DATABASE_NAME>  (1) 
drugbank

>  <SMILES>  (1) 
CN1CCC(CC1)=C1C2=CC=CC=C2SC2=CC=CC=C12

>  <INCHI_IDENTIFIER>  (1) 
InChI=1S/C19H19NS/c1-20-12-10-14(11-13-20)19-15-6-2-4-8-17(15)21-18-9-5-3-7-16(18)19/h2-9H,10-13H2,1H3

>  <INCHI_KEY>  (1) 
NZLVRVYNQYGMAB-UHFFFAOYSA-N

>  <FORMULA>  (1) 
C19H19NS

>  <MOLECULAR_WEIGHT>  (1) 
293.43

>  <EXACT_MASS>  (1) 
293.12382079

>  <JCHEM_ACCEPTOR_COUNT>  (1) 
1

>  <JCHEM_ATOM_COUNT>  (1) 
40

>  <JCHEM_AVERAGE_POLARIZABILITY>  (1) 
33.782694151887725

>  <JCHEM_BIOAVAILABILITY>  (1) 
1

>  <JCHEM_DONOR_COUNT>  (1) 
0

>  <JCHEM_FORMAL_CHARGE>  (1) 
0

>  <JCHEM_GHOSE_FILTER>  (1) 
1

>  <JCHEM_IUPAC>  (1) 
1-methyl-4-(9H-thioxanthen-9-ylidene)piperidine

>  <ALOGPS_LOGP>  (1) 
4.88

>  <JCHEM_LOGP>  (1) 
4.231750075333333

>  <ALOGPS_LOGS>  (1) 
-4.83

>  <JCHEM_MDDR_LIKE_RULE>  (1) 
0

>  <JCHEM_NUMBER_OF_RINGS>  (1) 
4

>  <JCHEM_PHYSIOLOGICAL_CHARGE>  (1) 
1

>  <JCHEM_PKA_STRONGEST_BASIC>  (1) 
7.959094211956229

>  <JCHEM_POLAR_SURFACE_AREA>  (1) 
3.24

>  <JCHEM_REFRACTIVITY>  (1) 
102.40350000000004

>  <JCHEM_ROTATABLE_BOND_COUNT>  (1) 
0

>  <JCHEM_RULE_OF_FIVE>  (1) 
1

>  <ALOGPS_SOLUBILITY>  (1) 
4.33e-03 g/l

>  <JCHEM_TRADITIONAL_IUPAC>  (1) 
pimethixene

>  <JCHEM_VEBER_RULE>  (1) 
1

>  <DRUGBANK_ID>  (1) 
DB13292

>  <DRUG_GROUPS>  (1) 
approved

>  <GENERIC_NAME>  (1) 
Pimethixene

>  <SYNONYMS>  (1) 
Pimethixene

$$$$
