
     RDKit          2D

 31 34  0  0  1  0  0  0  0  0999 V2000
   17.4442   -5.8431    0.0000 C   0  0  0  0  0  0  0  0  0  0  0  0
   19.5947   -4.5980    0.0000 C   0  0  0  0  0  0  0  0  0  0  0  0
   18.1516   -5.4186    0.0000 C   0  0  0  0  0  0  0  0  0  0  0  0
   17.4442   -6.6637    0.0000 C   0  0  0  0  0  0  0  0  0  0  0  0
   19.5947   -5.4186    0.0000 C   0  0  0  0  0  0  0  0  0  0  0  0
   18.8873   -5.8431    0.0000 C   0  0  0  0  0  0  0  0  0  0  0  0
   20.3870   -4.3433    0.0000 C   0  0  0  0  0  0  0  0  0  0  0  0
   18.1516   -4.5980    0.0000 C   0  0  0  0  0  0  0  0  0  0  0  0
   16.7085   -5.4186    0.0000 C   0  0  0  0  0  0  0  0  0  0  0  0
   18.8873   -4.1736    0.0000 C   0  0  0  0  0  0  0  0  0  0  0  0
   20.8680   -4.9942    0.0000 C   0  0  0  0  0  0  0  0  0  0  0  0
   20.3870   -5.6733    0.0000 C   0  0  0  0  0  0  0  0  0  0  0  0
   18.8873   -6.6637    0.0000 C   0  0  0  0  0  0  0  0  0  0  0  0
   18.1516   -7.0881    0.0000 C   0  0  0  0  0  0  0  0  0  0  0  0
   16.7085   -7.0881    0.0000 C   0  0  0  0  0  0  0  0  0  0  0  0
   20.3870   -3.4945    0.0000 C   0  0  0  0  0  0  0  0  0  0  0  0
   16.0010   -5.8431    0.0000 C   0  0  0  0  0  0  0  0  0  0  0  0
   16.0010   -6.6353    0.0000 C   0  0  0  0  0  0  0  0  0  0  0  0
   18.1516   -6.2109    0.0000 F   0  0  0  0  0  0  0  0  0  0  0  0
   19.6796   -3.0983    0.0000 O   0  0  0  0  0  0  0  0  0  0  0  0
   15.2654   -7.0598    0.0000 O   0  0  0  0  0  0  0  0  0  0  0  0
   17.4442   -4.9942    0.0000 C   0  0  0  0  0  0  0  0  0  0  0  0
   19.5947   -3.8057    0.0000 C   0  0  0  0  0  0  0  0  0  0  0  0
   17.4442   -4.1736    0.0000 O   0  0  0  0  0  0  0  0  0  0  0  0
   18.1516   -7.9087    0.0000 F   0  0  0  0  0  0  0  0  0  0  0  0
   21.0944   -3.0983    0.0000 C   0  0  0  0  0  0  0  0  0  0  0  0
   21.8301   -3.4945    0.0000 O   0  0  0  0  0  0  0  0  0  0  0  0
   18.8873   -4.9942    0.0000 H   0  0  0  0  0  0  0  0  0  0  0  0
   19.5947   -6.2392    0.0000 H   0  0  0  0  0  0  0  0  0  0  0  0
   21.6930   -4.9858    0.0000 C   0  0  0  0  0  0  0  0  0  0  0  0
   21.1810   -4.5522    0.0000 O   0  0  0  0  0  0  0  0  0  0  0  0
  3  1  1  0
  4  1  1  0
  9  1  1  0
  1 22  1  1
 10  2  1  0
  7  2  1  0
  2 23  1  1
  5  2  1  0
  6  3  1  0
  8  3  1  0
  3 19  1  6
 14  4  1  0
 15  4  2  0
  6  5  1  0
 12  5  1  0
  5 29  1  6
 13  6  1  0
  6 28  1  1
 16  7  1  0
 11  7  1  0
 10  8  1  0
  8 24  1  1
 17  9  2  0
 12 11  1  0
 14 13  1  0
 14 25  1  6
 18 15  1  0
 20 16  2  0
 26 16  1  0
 18 17  1  0
 21 18  2  0
 27 26  1  0
 11 30  1  1
  7 31  1  6
M  END
>  <DATABASE_ID>  (1) 
DB00223

>  <DATABASE_NAME>  (1) 
drugbank

>  <SMILES>  (1) 
[H][C@@]12C[C@H](C)[C@](O)(C(=O)CO)[C@@]1(C)C[C@H](O)[C@@]1(F)[C@@]2([H])C[C@H](F)C2=CC(=O)C=C[C@]12C

>  <INCHI_IDENTIFIER>  (1) 
InChI=1S/C22H28F2O5/c1-11-6-13-14-8-16(23)15-7-12(26)4-5-19(15,2)21(14,24)17(27)9-20(13,3)22(11,29)18(28)10-25/h4-5,7,11,13-14,16-17,25,27,29H,6,8-10H2,1-3H3/t11-,13-,14-,16-,17-,19-,20-,21-,22-/m0/s1

>  <INCHI_KEY>  (1) 
WXURHACBFYSXBI-XHIJKXOTSA-N

>  <FORMULA>  (1) 
C22H28F2O5

>  <MOLECULAR_WEIGHT>  (1) 
410.4515

>  <EXACT_MASS>  (1) 
410.190480416

>  <JCHEM_ACCEPTOR_COUNT>  (1) 
5

>  <JCHEM_ATOM_COUNT>  (1) 
57

>  <JCHEM_AVERAGE_NEUTRAL_MICROSPECIES_CHARGE>  (1) 
-4.263958900140676e-06

>  <JCHEM_AVERAGE_POLARIZABILITY>  (1) 
40.91822558855766

>  <JCHEM_BIOAVAILABILITY>  (1) 
1

>  <JCHEM_DONOR_COUNT>  (1) 
3

>  <JCHEM_FORMAL_CHARGE>  (1) 
0

>  <JCHEM_GHOSE_FILTER>  (1) 
1

>  <JCHEM_IUPAC>  (1) 
(1R,2S,3aS,3bS,5S,9aS,9bR,10S,11aS)-5,9b-difluoro-1,10-dihydroxy-1-(2-hydroxyacetyl)-2,9a,11a-trimethyl-1H,2H,3H,3aH,3bH,4H,5H,7H,9aH,9bH,10H,11H,11aH-cyclopenta[a]phenanthren-7-one

>  <ALOGPS_LOGP>  (1) 
1.91

>  <JCHEM_LOGP>  (1) 
1.3418503866666678

>  <ALOGPS_LOGS>  (1) 
-3.68

>  <JCHEM_MDDR_LIKE_RULE>  (1) 
0

>  <JCHEM_NEUTRAL_CHARGE>  (1) 
0

>  <JCHEM_NUMBER_OF_RINGS>  (1) 
4

>  <JCHEM_PHYSIOLOGICAL_CHARGE>  (1) 
0

>  <JCHEM_PKA>  (1) 
13.460488723827968

>  <JCHEM_PKA_STRONGEST_ACIDIC>  (1) 
12.42260640280769

>  <JCHEM_PKA_STRONGEST_BASIC>  (1) 
-3.3301756738819575

>  <JCHEM_POLAR_SURFACE_AREA>  (1) 
94.83000000000001

>  <JCHEM_REFRACTIVITY>  (1) 
102.31629999999998

>  <JCHEM_ROTATABLE_BOND_COUNT>  (1) 
2

>  <JCHEM_RULE_OF_FIVE>  (1) 
1

>  <ALOGPS_SOLUBILITY>  (1) 
8.53e-02 g/l

>  <JCHEM_TRADITIONAL_IUPAC>  (1) 
biotin

>  <JCHEM_VEBER_RULE>  (1) 
0

>  <DRUGBANK_ID>  (1) 
DB00223

>  <SECONDARY_ACCESSION_NUMBERS>  (1) 
APRD00921

>  <DRUG_GROUPS>  (1) 
approved

>  <GENERIC_NAME>  (1) 
Diflorasone

>  <SYNONYMS>  (1) 
(6α,11β,16β)-6,9-difluoro-11,17,21-trihydroxy-16-methylpregna-1,4-diene-3,20-dione; Diflorasona; Diflorasone; Diflorasonum

>  <PRODUCTS>  (1) 
ApexiCon; ApexiCon E; Diflorasone Diacetate; Diflorasone Diacetate Oint; Florone; Florone Crm 0.05%; Florone Ont 0.05%; Psorcon; Psorcon E

>  <INTERNATIONAL_BRANDS>  (1) 
Florone E; Maxiflor

>  <SALTS>  (1) 
Diflorasone diacetate

$$$$
