
     RDKit          2D

 31 35  0  0  0  0  0  0  0  0999 V2000
   -2.4543   -1.0312    0.0000 C   0  0  0  0  0  0  0  0  0  0  0  0
   -2.4543   -0.2062    0.0000 C   0  0  0  0  0  0  0  0  0  0  0  0
   -3.1557    0.2062    0.0000 C   0  0  0  0  0  0  0  0  0  0  0  0
   -3.1557   -1.4437    0.0000 C   0  0  0  0  0  0  0  0  0  0  0  0
   -3.8981   -1.0312    0.0000 C   0  0  0  0  0  0  0  0  0  0  0  0
   -3.8981   -0.2062    0.0000 C   0  0  0  0  0  0  0  0  0  0  0  0
   -5.3007   -0.1649    0.0000 C   0  0  0  0  0  0  0  0  0  0  0  0
   -5.3007   -0.9899    0.0000 C   0  0  0  0  0  0  0  0  0  0  0  0
   -4.5994   -1.4437    0.0000 N   0  0  0  0  0  0  0  0  0  0  0  0
   -6.0432   -1.4025    0.0000 O   0  0  0  0  0  0  0  0  0  0  0  0
   -1.7531   -1.4437    0.0000 O   0  0  0  0  0  0  0  0  0  0  0  0
   -1.0106   -1.0312    0.0000 C   0  0  0  0  0  0  0  0  0  0  0  0
   -0.3093   -1.4437    0.0000 C   0  0  0  0  0  0  0  0  0  0  0  0
    0.3919   -1.0312    0.0000 C   0  0  0  0  0  0  0  0  0  0  0  0
    1.1344   -1.4437    0.0000 C   0  0  0  0  0  0  0  0  0  0  0  0
    1.8356   -1.0312    0.0000 N   0  0  0  0  0  0  0  0  0  0  0  0
    2.5369   -1.4437    0.0000 C   0  0  0  0  0  0  0  0  0  0  0  0
    3.2794   -1.0312    0.0000 C   0  0  0  0  0  0  0  0  0  0  0  0
    3.2794   -0.2062    0.0000 N   0  0  0  0  0  0  0  0  0  0  0  0
    2.5369    0.2062    0.0000 C   0  0  0  0  0  0  0  0  0  0  0  0
    1.8356   -0.2062    0.0000 C   0  0  0  0  0  0  0  0  0  0  0  0
    3.9807    0.2062    0.0000 C   0  0  0  0  0  0  0  0  0  0  0  0
    4.6819   -0.2062    0.0000 C   0  0  0  0  0  0  0  0  0  0  0  0
    5.4244    0.2062    0.0000 C   0  0  0  0  0  0  0  0  0  0  0  0
    5.4244    1.0312    0.0000 C   0  0  0  0  0  0  0  0  0  0  0  0
    4.6819    1.4437    0.0000 C   0  0  0  0  0  0  0  0  0  0  0  0
    3.9807    1.0312    0.0000 C   0  0  0  0  0  0  0  0  0  0  0  0
   -4.5994    0.2062    0.0000 C   0  0  0  0  0  0  0  0  0  0  0  0
    4.8469   -1.0312    0.0000 C   0  0  0  0  0  0  0  0  0  0  0  0
    5.6719   -1.1550    0.0000 C   0  0  0  0  0  0  0  0  0  0  0  0
    6.0432   -0.3712    0.0000 S   0  0  0  0  0  0  0  0  0  0  0  0
  5  4  2  0
 14 15  1  0
  5  6  1  0
 15 16  1  0
 28  7  2  0
  7  8  1  0
  8  9  1  0
  9  5  1  0
  4  1  1  0
 16 17  1  0
 17 18  1  0
 18 19  1  0
 19 20  1  0
 20 21  1  0
 21 16  1  0
  8 10  2  0
 19 22  1  0
  1 11  1  0
  1  2  2  0
 11 12  1  0
  2  3  1  0
 22 23  2  0
 23 24  1  0
 24 25  2  0
 25 26  1  0
 26 27  2  0
 27 22  1  0
 12 13  1  0
  3  6  2  0
 13 14  1  0
  6 28  1  0
 23 29  1  0
 29 30  2  0
 30 31  1  0
 24 31  1  0
M  END
>  <DATABASE_ID>  (1) 
DB09128

>  <DATABASE_NAME>  (1) 
drugbank

>  <SMILES>  (1) 
O=C1NC2=CC(OCCCCN3CCN(CC3)C3=C4C=CSC4=CC=C3)=CC=C2C=C1

>  <INCHI_IDENTIFIER>  (1) 
InChI=1S/C25H27N3O2S/c29-25-9-7-19-6-8-20(18-22(19)26-25)30-16-2-1-11-27-12-14-28(15-13-27)23-4-3-5-24-21(23)10-17-31-24/h3-10,17-18H,1-2,11-16H2,(H,26,29)

>  <INCHI_KEY>  (1) 
ZKIAIYBUSXZPLP-UHFFFAOYSA-N

>  <FORMULA>  (1) 
C25H27N3O2S

>  <MOLECULAR_WEIGHT>  (1) 
433.57

>  <EXACT_MASS>  (1) 
433.182398295

>  <JCHEM_ACCEPTOR_COUNT>  (1) 
4

>  <JCHEM_ATOM_COUNT>  (1) 
58

>  <JCHEM_AVERAGE_POLARIZABILITY>  (1) 
49.47918205026148

>  <JCHEM_BIOAVAILABILITY>  (1) 
1

>  <JCHEM_DONOR_COUNT>  (1) 
1

>  <JCHEM_FORMAL_CHARGE>  (1) 
0

>  <JCHEM_GHOSE_FILTER>  (1) 
1

>  <JCHEM_IUPAC>  (1) 
7-{4-[4-(1-benzothiophen-4-yl)piperazin-1-yl]butoxy}-1,2-dihydroquinolin-2-one

>  <ALOGPS_LOGP>  (1) 
5.38

>  <JCHEM_LOGP>  (1) 
4.6497025926666655

>  <ALOGPS_LOGS>  (1) 
-5.28

>  <JCHEM_MDDR_LIKE_RULE>  (1) 
1

>  <JCHEM_NUMBER_OF_RINGS>  (1) 
5

>  <JCHEM_PHYSIOLOGICAL_CHARGE>  (1) 
1

>  <JCHEM_PKA_STRONGEST_ACIDIC>  (1) 
13.563770516890099

>  <JCHEM_PKA_STRONGEST_BASIC>  (1) 
8.398200642482388

>  <JCHEM_POLAR_SURFACE_AREA>  (1) 
44.81

>  <JCHEM_REFRACTIVITY>  (1) 
129.1602

>  <JCHEM_ROTATABLE_BOND_COUNT>  (1) 
7

>  <JCHEM_RULE_OF_FIVE>  (1) 
1

>  <ALOGPS_SOLUBILITY>  (1) 
2.27e-03 g/l

>  <JCHEM_TRADITIONAL_IUPAC>  (1) 
brexpiprazole

>  <JCHEM_VEBER_RULE>  (1) 
0

>  <DRUGBANK_ID>  (1) 
DB09128

>  <DRUG_GROUPS>  (1) 
approved; investigational

>  <GENERIC_NAME>  (1) 
Brexpiprazole

>  <SYNONYMS>  (1) 
Brexpiprazole; Lu-AF41156

>  <PRODUCTS>  (1) 
Brexpiprazole; Rexulti; Rxulti

>  <SALTS>  (1) 
Brexpiprazole dihydrochloride

$$$$
