
     RDKit          2D

 13 14  0  0  0  0  0  0  0  0999 V2000
    0.0000    0.8250    0.0000 C   0  0  0  0  0  0  0  0  0  0  0  0
    0.0000   -0.0000    0.0000 C   0  0  0  0  0  0  0  0  0  0  0  0
   -0.7145   -0.4125    0.0000 C   0  0  0  0  0  0  0  0  0  0  0  0
   -0.7145   -1.2375    0.0000 C   0  0  0  0  0  0  0  0  0  0  0  0
    0.0000   -1.6500    0.0000 C   0  0  0  0  0  0  0  0  0  0  0  0
    0.7145   -1.2375    0.0000 C   0  0  0  0  0  0  0  0  0  0  0  0
    0.7145   -0.4125    0.0000 C   0  0  0  0  0  0  0  0  0  0  0  0
    1.4289   -0.0000    0.0000 C   0  0  0  0  0  0  0  0  0  0  0  0
    2.1434   -0.4125    0.0000 C   0  0  0  0  0  0  0  0  0  0  0  0
    2.1434   -1.2375    0.0000 C   0  0  0  0  0  0  0  0  0  0  0  0
    1.4289   -1.6500    0.0000 N   0  0  0  0  0  0  0  0  0  0  0  0
    0.0000   -2.4750    0.0000 O   0  0  0  0  0  0  0  0  0  0  0  0
   -1.4289   -1.6500    0.0000 Br  0  0  0  0  0  0  0  0  0  0  0  0
  1  2  1  0
  2  3  2  0
  3  4  1  0
  4  5  2  0
  5  6  1  0
  6  7  2  0
  2  7  1  0
  7  8  1  0
  8  9  2  0
  9 10  1  0
 10 11  2  0
  6 11  1  0
  5 12  1  0
  4 13  1  0
M  END
>  <DATABASE_ID>  (1) 
DB13222

>  <DATABASE_NAME>  (1) 
drugbank

>  <SMILES>  (1) 
CC1=C2C=CC=NC2=C(O)C(Br)=C1

>  <INCHI_IDENTIFIER>  (1) 
InChI=1S/C10H8BrNO/c1-6-5-8(11)10(13)9-7(6)3-2-4-12-9/h2-5,13H,1H3

>  <INCHI_KEY>  (1) 
JMOVFFLYGIQXMM-UHFFFAOYSA-N

>  <FORMULA>  (1) 
C10H8BrNO

>  <MOLECULAR_WEIGHT>  (1) 
238.084

>  <EXACT_MASS>  (1) 
236.978927

>  <JCHEM_ACCEPTOR_COUNT>  (1) 
2

>  <JCHEM_ATOM_COUNT>  (1) 
21

>  <JCHEM_AVERAGE_POLARIZABILITY>  (1) 
20.403465257800775

>  <JCHEM_BIOAVAILABILITY>  (1) 
1

>  <JCHEM_DONOR_COUNT>  (1) 
1

>  <JCHEM_FORMAL_CHARGE>  (1) 
0

>  <JCHEM_GHOSE_FILTER>  (1) 
1

>  <JCHEM_IUPAC>  (1) 
7-bromo-5-methylquinolin-8-ol

>  <ALOGPS_LOGP>  (1) 
3.11

>  <JCHEM_LOGP>  (1) 
3.1095091643333332

>  <ALOGPS_LOGS>  (1) 
-2.90

>  <JCHEM_MDDR_LIKE_RULE>  (1) 
0

>  <JCHEM_NUMBER_OF_RINGS>  (1) 
2

>  <JCHEM_PHYSIOLOGICAL_CHARGE>  (1) 
0

>  <JCHEM_PKA_STRONGEST_ACIDIC>  (1) 
7.842888621808817

>  <JCHEM_PKA_STRONGEST_BASIC>  (1) 
4.45978976253757

>  <JCHEM_POLAR_SURFACE_AREA>  (1) 
33.120000000000005

>  <JCHEM_REFRACTIVITY>  (1) 
54.6242

>  <JCHEM_ROTATABLE_BOND_COUNT>  (1) 
0

>  <JCHEM_RULE_OF_FIVE>  (1) 
1

>  <ALOGPS_SOLUBILITY>  (1) 
2.99e-01 g/l

>  <JCHEM_TRADITIONAL_IUPAC>  (1) 
tilbroquinol

>  <JCHEM_VEBER_RULE>  (1) 
1

>  <DRUGBANK_ID>  (1) 
DB13222

>  <DRUG_GROUPS>  (1) 
approved

>  <GENERIC_NAME>  (1) 
Tilbroquinol

>  <SYNONYMS>  (1) 
Tilbroquinol

$$$$
