807
     RDKit          2D

 21 21  0  0  0  0  0  0  0  0999 V2000
    6.6515   -0.3341    0.0000 O   0  0  0  0  0  0  0  0  0  0  0  0
    3.7935    2.1409    0.0000 O   0  0  0  0  0  0  0  0  0  0  0  0
    7.3659    0.9034    0.0000 O   0  0  0  0  0  0  0  0  0  0  0  0
    8.0804   -1.9842    0.0000 N   0  0  0  0  0  0  0  0  0  0  0  0
    5.2224    2.9659    0.0000 N   0  0  0  0  0  0  0  0  0  0  0  0
    7.3659   -1.5717    0.0000 C   0  0  0  0  0  0  0  0  0  0  0  0
    8.0804   -2.8092    0.0000 C   0  0  0  0  0  0  0  0  0  0  0  0
    8.7949   -1.5717    0.0000 C   0  0  0  0  0  0  0  0  0  0  0  0
    7.3659   -0.7466    0.0000 C   0  0  0  0  0  0  0  0  0  0  0  0
    8.7949   -3.2217    0.0000 C   0  0  0  0  0  0  0  0  0  0  0  0
    9.5094   -1.9842    0.0000 C   0  0  0  0  0  0  0  0  0  0  0  0
    5.9370    0.9034    0.0000 C   0  0  0  0  0  0  0  0  0  0  0  0
    6.6515    0.4909    0.0000 C   0  0  0  0  0  0  0  0  0  0  0  0
    4.5080    1.7284    0.0000 C   0  0  0  0  0  0  0  0  0  0  0  0
    5.2224    2.1409    0.0000 C   0  0  0  0  0  0  0  0  0  0  0  0
    5.9370    1.7284    0.0000 C   0  0  0  0  0  0  0  0  0  0  0  0
    5.2224    0.4909    0.0000 C   0  0  0  0  0  0  0  0  0  0  0  0
    3.0791    1.7284    0.0000 C   0  0  0  0  0  0  0  0  0  0  0  0
    4.5080    0.9034    0.0000 C   0  0  0  0  0  0  0  0  0  0  0  0
    2.3645    2.1409    0.0000 C   0  0  0  0  0  0  0  0  0  0  0  0
    1.6500    1.7284    0.0000 C   0  0  0  0  0  0  0  0  0  0  0  0
  1  9  1  0
  1 13  1  0
  2 14  1  0
  2 18  1  0
  3 13  2  0
  4  6  1  0
  4  7  1  0
  4  8  1  0
  5 15  1  0
  6  9  1  0
  7 10  1  0
  8 11  1  0
 12 13  1  0
 12 16  2  0
 12 17  1  0
 14 15  2  0
 14 19  1  0
 15 16  1  0
 17 19  2  0
 18 20  1  0
 20 21  1  0
M  END
>  <DATABASE_ID>  (1) 
DB00807

>  <DATABASE_NAME>  (1) 
drugbank

>  <SMILES>  (1) 
CCCOC1=C(N)C=C(C=C1)C(=O)OCCN(CC)CC

>  <INCHI_IDENTIFIER>  (1) 
InChI=1S/C16H26N2O3/c1-4-10-20-15-8-7-13(12-14(15)17)16(19)21-11-9-18(5-2)6-3/h7-8,12H,4-6,9-11,17H2,1-3H3

>  <INCHI_KEY>  (1) 
KCLANYCVBBTKTO-UHFFFAOYSA-N

>  <FORMULA>  (1) 
C16H26N2O3

>  <MOLECULAR_WEIGHT>  (1) 
294.3892

>  <EXACT_MASS>  (1) 
294.194342708

>  <JCHEM_ACCEPTOR_COUNT>  (1) 
4

>  <JCHEM_ATOM_COUNT>  (1) 
47

>  <JCHEM_AVERAGE_NEUTRAL_MICROSPECIES_CHARGE>  (1) 
0.9892636406971722

>  <JCHEM_AVERAGE_POLARIZABILITY>  (1) 
34.00077680123867

>  <JCHEM_BIOAVAILABILITY>  (1) 
1

>  <JCHEM_DONOR_COUNT>  (1) 
1

>  <JCHEM_FORMAL_CHARGE>  (1) 
0

>  <JCHEM_GHOSE_FILTER>  (1) 
1

>  <JCHEM_IUPAC>  (1) 
2-(diethylamino)ethyl 3-amino-4-propoxybenzoate

>  <ALOGPS_LOGP>  (1) 
2.97

>  <JCHEM_LOGP>  (1) 
2.601716341666667

>  <ALOGPS_LOGS>  (1) 
-2.33

>  <JCHEM_MDDR_LIKE_RULE>  (1) 
0

>  <JCHEM_NEUTRAL_CHARGE>  (1) 
1

>  <JCHEM_NUMBER_OF_RINGS>  (1) 
1

>  <JCHEM_PHYSIOLOGICAL_CHARGE>  (1) 
1

>  <JCHEM_PKA_STRONGEST_BASIC>  (1) 
8.961552253097953

>  <JCHEM_POLAR_SURFACE_AREA>  (1) 
64.79

>  <JCHEM_REFRACTIVITY>  (1) 
86.03580000000001

>  <JCHEM_ROTATABLE_BOND_COUNT>  (1) 
10

>  <JCHEM_RULE_OF_FIVE>  (1) 
1

>  <ALOGPS_SOLUBILITY>  (1) 
1.39e+00 g/l

>  <JCHEM_TRADITIONAL_IUPAC>  (1) 
tetrahydrofolic acid

>  <JCHEM_VEBER_RULE>  (1) 
0

>  <DRUGBANK_ID>  (1) 
DB00807

>  <SECONDARY_ACCESSION_NUMBERS>  (1) 
APRD00522

>  <DRUG_GROUPS>  (1) 
approved; investigational; vet_approved

>  <GENERIC_NAME>  (1) 
Proparacaine

>  <SYNONYMS>  (1) 
Proparacaine; Proximetacaina; Proxymetacaine; Proxymetacainum

>  <PRODUCTS>  (1) 
Alcaine; Flucaine; Fluorescein Sodium and Proparacaine Hydrochloride; Mydriatic-4; Odan-fluoracaine; Odan-proparacaine; Ophthetic; PMS-proparacaine Hydrochloride Oph Soltn 0.5%; Proparacaine; Proparacaine Hydrochloride; Proparacaine hydrochloride; R.O.-parcaine Dps 5mg/ml

>  <INTERNATIONAL_BRANDS>  (1) 
Ak-Taine; Diocaine; Ocu-Caine; Ophthaine; Spectro-Caine

>  <SALTS>  (1) 
Proparacaine hydrochloride

$$$$
