
     RDKit          2D

 30 33  0  0  0  0  0  0  0  0999 V2000
    2.2933   -0.8465    0.0000 C   0  0  0  0  0  0  0  0  0  0  0  0
    0.7942   -1.8292    0.0000 C   0  0  0  0  0  0  0  0  0  0  0  0
    2.2933    0.4882    0.0000 C   0  0  0  0  0  0  0  0  0  0  0  0
    0.7942    0.6457    0.0000 C   0  0  0  0  0  0  0  0  0  0  0  0
    2.7782   -0.1792    0.0000 C   0  0  0  0  0  0  0  0  0  0  0  0
   -0.6347   -1.0042    0.0000 C   0  0  0  0  0  0  0  0  0  0  0  0
    0.0797    0.2332    0.0000 C   0  0  0  0  0  0  0  0  0  0  0  0
    0.0797   -2.2417    0.0000 C   0  0  0  0  0  0  0  0  0  0  0  0
   -0.6347   -1.8292    0.0000 C   0  0  0  0  0  0  0  0  0  0  0  0
   -1.3493   -0.5917    0.0000 C   0  0  0  0  0  0  0  0  0  0  0  0
   -1.3493   -2.2417    0.0000 C   0  0  0  0  0  0  0  0  0  0  0  0
   -2.0637   -1.0042    0.0000 C   0  0  0  0  0  0  0  0  0  0  0  0
    0.7942   -1.0042    0.0000 C   0  0  0  0  0  0  0  0  0  0  0  0
    0.7942   -0.1792    0.0000 H   0  0  0  0  0  0  0  0  0  0  0  0
    0.0797   -0.5917    0.0000 C   0  0  0  0  0  0  0  0  0  0  0  0
    0.0797   -1.4167    0.0000 H   0  0  0  0  0  0  0  0  0  0  0  0
    1.5087    0.2332    0.0000 C   0  0  0  0  0  0  0  0  0  0  0  0
    1.5087    1.0582    0.0000 C   0  0  0  0  0  0  0  0  0  0  0  0
    1.5087   -0.5917    0.0000 C   0  0  0  0  0  0  0  0  0  0  0  0
    1.5087   -1.4167    0.0000 H   0  0  0  0  0  0  0  0  0  0  0  0
   -2.7782   -2.2417    0.0000 O   0  0  0  0  0  0  0  0  0  0  0  0
   -2.0637   -1.8292    0.0000 C   0  0  0  0  0  0  0  0  0  0  0  0
   -0.6347   -0.1792    0.0000 C   0  0  0  0  0  0  0  0  0  0  0  0
    2.4648    1.2952    0.0000 O   0  0  0  0  0  0  0  0  0  0  0  0
   -2.7782   -0.5917    0.0000 C   0  0  0  0  0  0  0  0  0  0  0  0
    1.8517    1.8472    0.0000 C   0  0  0  0  0  0  0  0  0  0  0  0
    1.0671    1.5923    0.0000 C   0  0  0  0  0  0  0  0  0  0  0  0
    0.4540    2.1443    0.0000 C   0  0  0  0  0  0  0  0  0  0  0  0
    2.0232    2.6542    0.0000 O   0  0  0  0  0  0  0  0  0  0  0  0
   -0.6347   -2.6542    0.0000 H   0  0  0  0  0  0  0  0  0  0  0  0
 19 13  1  0
 19 17  1  0
 19  1  1  0
 13 15  1  0
 13  2  1  0
 17  3  1  0
 17  4  1  0
  5  1  1  0
 15  6  1  0
 15  7  1  0
  2  8  1  0
  6  9  1  0
  6 10  1  0
  9 11  1  0
 10 12  1  0
 11 22  1  0
  3  5  1  0
  4  7  1  0
  8  9  1  0
 12 22  1  0
 13 14  1  1
 15 16  1  6
 17 18  1  1
 19 20  1  6
 22 21  2  0
  6 23  1  1
  3 24  1  1
 12 25  1  6
 24 26  1  0
 26 27  1  0
 27 28  1  0
 26 29  2  0
  9 30  1  6
M  END
>  <DATABASE_ID>  (1) 
DB14655

>  <DATABASE_NAME>  (1) 
drugbank

>  <SMILES>  (1) 
[H][C@@]12CC[C@H](OC(=O)CC)[C@@]1(C)CC[C@@]1([H])[C@@]2([H])CC[C@@]2([H])CC(=O)[C@H](C)C[C@]12C

>  <INCHI_IDENTIFIER>  (1) 
InChI=1S/C23H36O3/c1-5-21(25)26-20-9-8-17-16-7-6-15-12-19(24)14(2)13-23(15,4)18(16)10-11-22(17,20)3/h14-18,20H,5-13H2,1-4H3/t14-,15+,16+,17+,18+,20+,22+,23+/m1/s1

>  <INCHI_KEY>  (1) 
NOTIQUSPUUHHEH-UXOVVSIBSA-N

>  <FORMULA>  (1) 
C23H36O3

>  <MOLECULAR_WEIGHT>  (1) 
360.538

>  <EXACT_MASS>  (1) 
360.266445019

>  <JCHEM_ACCEPTOR_COUNT>  (1) 
2

>  <JCHEM_ATOM_COUNT>  (1) 
62

>  <JCHEM_AVERAGE_POLARIZABILITY>  (1) 
43.19417080232161

>  <JCHEM_BIOAVAILABILITY>  (1) 
1

>  <JCHEM_DONOR_COUNT>  (1) 
0

>  <JCHEM_FORMAL_CHARGE>  (1) 
0

>  <JCHEM_GHOSE_FILTER>  (1) 
1

>  <JCHEM_IUPAC>  (1) 
(1S,3aS,3bR,5aS,8R,9aS,9bS,11aS)-8,9a,11a-trimethyl-7-oxo-hexadecahydro-1H-cyclopenta[a]phenanthren-1-yl propanoate

>  <ALOGPS_LOGP>  (1) 
4.76

>  <JCHEM_LOGP>  (1) 
5.095905168333333

>  <ALOGPS_LOGS>  (1) 
-5.76

>  <JCHEM_MDDR_LIKE_RULE>  (1) 
0

>  <JCHEM_NUMBER_OF_RINGS>  (1) 
4

>  <JCHEM_PHYSIOLOGICAL_CHARGE>  (1) 
0

>  <JCHEM_PKA_STRONGEST_BASIC>  (1) 
-6.886029402774802

>  <JCHEM_POLAR_SURFACE_AREA>  (1) 
43.370000000000005

>  <JCHEM_REFRACTIVITY>  (1) 
101.95599999999997

>  <JCHEM_ROTATABLE_BOND_COUNT>  (1) 
3

>  <JCHEM_RULE_OF_FIVE>  (1) 
0

>  <ALOGPS_SOLUBILITY>  (1) 
6.31e-04 g/l

>  <JCHEM_TRADITIONAL_IUPAC>  (1) 
dromostanolone

>  <JCHEM_VEBER_RULE>  (1) 
0

>  <DRUGBANK_ID>  (1) 
DB14655

>  <SECONDARY_ACCESSION_NUMBERS>  (1) 
DBSALT001342

>  <DRUG_GROUPS>  (1) 
approved; illicit

>  <GENERIC_NAME>  (1) 
Drostanolone propionate

>  <SYNONYMS>  (1) 
17β-Hydroxy-2α-methyl-5α-androstan-3-one propionate; 2M-DHTP; 2MDTP; 2α-Methyl-4,5-dihydrotestosterone propionate; Blackburn Compound; Dromostanolone propionate; Drostanolone propionate; Emdisterone; Testosterone, 4,5α-dihydro-2α-methyl-, propionate

>  <INTERNATIONAL_BRANDS>  (1) 
Drolban; Masteril; Masteron

$$$$
