471
     RDKit          2D

 41 45  0  0  1  0  0  0  0  0999 V2000
   14.2938   -1.4637    0.0000 Cl  0  0  0  0  0  0  0  0  0  0  0  0
    5.6655   -1.4438    0.0000 S   0  0  0  0  0  0  0  0  0  0  0  0
    2.0930   -1.0313    0.0000 O   0  0  0  0  0  0  0  0  0  0  0  0
    2.8075   -2.2688    0.0000 O   0  0  0  0  0  0  0  0  0  0  0  0
    3.5220    0.6188    0.0000 O   0  0  0  0  0  0  0  0  0  0  0  0
   11.3814   -1.4438    0.0000 N   0  0  0  0  0  0  0  0  0  0  0  0
    4.2365   -1.4438    0.0000 C   0  0  0  0  0  0  0  0  0  0  0  0
    3.8240   -2.1582    0.0000 C   0  0  0  0  0  0  0  0  0  0  0  0
    4.6490   -2.1582    0.0000 C   0  0  0  0  0  0  0  0  0  0  0  0
    4.9509   -1.0313    0.0000 C   0  0  0  0  0  0  0  0  0  0  0  0
    3.5220   -1.0313    0.0000 C   0  0  0  0  0  0  0  0  0  0  0  0
    2.8075   -1.4438    0.0000 C   0  0  0  0  0  0  0  0  0  0  0  0
    6.3799   -1.0313    0.0000 C   0  0  0  0  0  0  0  0  0  0  0  0
    6.3799   -0.2063    0.0000 C   0  0  0  0  0  0  0  0  0  0  0  0
    7.0944   -1.4438    0.0000 C   0  0  0  0  0  0  0  0  0  0  0  0
    5.6655    0.2063    0.0000 C   0  0  0  0  0  0  0  0  0  0  0  0
    7.8089   -1.0313    0.0000 C   0  0  0  0  0  0  0  0  0  0  0  0
    7.0944   -2.2688    0.0000 C   0  0  0  0  0  0  0  0  0  0  0  0
    5.6655    1.0313    0.0000 C   0  0  0  0  0  0  0  0  0  0  0  0
    4.9509    1.4438    0.0000 C   0  0  0  0  0  0  0  0  0  0  0  0
    8.5234   -1.4438    0.0000 C   0  0  0  0  0  0  0  0  0  0  0  0
    7.8089   -2.6813    0.0000 C   0  0  0  0  0  0  0  0  0  0  0  0
    4.2365    1.0313    0.0000 C   0  0  0  0  0  0  0  0  0  0  0  0
    6.3799    1.4438    0.0000 C   0  0  0  0  0  0  0  0  0  0  0  0
    8.5234   -2.2688    0.0000 C   0  0  0  0  0  0  0  0  0  0  0  0
    4.9509    2.2688    0.0000 C   0  0  0  0  0  0  0  0  0  0  0  0
    6.3799    2.2688    0.0000 C   0  0  0  0  0  0  0  0  0  0  0  0
    9.2379   -1.0313    0.0000 C   0  0  0  0  0  0  0  0  0  0  0  0
    3.8240    1.7457    0.0000 C   0  0  0  0  0  0  0  0  0  0  0  0
    4.6490    0.3168    0.0000 C   0  0  0  0  0  0  0  0  0  0  0  0
    5.6655    2.6813    0.0000 C   0  0  0  0  0  0  0  0  0  0  0  0
    9.9524   -1.4438    0.0000 C   0  0  0  0  0  0  0  0  0  0  0  0
   10.6668   -1.0313    0.0000 C   0  0  0  0  0  0  0  0  0  0  0  0
   10.6668   -0.2063    0.0000 C   0  0  0  0  0  0  0  0  0  0  0  0
   12.0958   -1.0313    0.0000 C   0  0  0  0  0  0  0  0  0  0  0  0
   11.3814    0.2063    0.0000 C   0  0  0  0  0  0  0  0  0  0  0  0
   12.0958   -0.2063    0.0000 C   0  0  0  0  0  0  0  0  0  0  0  0
   12.8333   -1.4724    0.0000 C   0  0  0  0  0  0  0  0  0  0  0  0
   12.8333    0.2349    0.0000 C   0  0  0  0  0  0  0  0  0  0  0  0
   13.5809   -1.0484    0.0000 C   0  0  0  0  0  0  0  0  0  0  0  0
   13.5809   -0.1891    0.0000 C   0  0  0  0  0  0  0  0  0  0  0  0
  1 40  1  0
  2 10  1  0
  2 13  1  0
  3 12  1  0
  4 12  2  0
  5 23  1  0
  6 33  2  0
  6 35  1  0
  7  8  1  0
  7  9  1  0
  7 10  1  0
  7 11  1  0
  8  9  1  0
 11 12  1  0
 13 14  1  6
 13 15  1  0
 14 16  1  0
 15 17  2  0
 15 18  1  0
 16 19  1  0
 17 21  1  0
 18 22  2  0
 19 20  2  0
 19 24  1  0
 20 23  1  0
 20 26  1  0
 21 25  2  0
 21 28  1  0
 22 25  1  0
 23 29  1  0
 23 30  1  0
 24 27  2  0
 26 31  2  0
 27 31  1  0
 28 32  2  0
 32 33  1  0
 33 34  1  0
 34 36  2  0
 35 37  2  0
 35 38  1  0
 36 37  1  0
 37 39  1  0
 38 40  2  0
 39 41  2  0
 40 41  1  0
M  END
>  <DATABASE_ID>  (1) 
DB00471

>  <DATABASE_NAME>  (1) 
drugbank

>  <SMILES>  (1) 
OC(=O)CC1(CC1)CS[C@H](CCC1=CC=CC=C1C(O)(C)C)C1=CC=CC(\C=C\C2=NC3=C(C=CC(Cl)=C3)C=C2)=C1

>  <INCHI_IDENTIFIER>  (1) 
InChI=1S/C35H36ClNO3S/c1-34(2,40)30-9-4-3-7-25(30)13-17-32(41-23-35(18-19-35)22-33(38)39)27-8-5-6-24(20-27)10-15-29-16-12-26-11-14-28(36)21-31(26)37-29/h3-12,14-16,20-21,32,40H,13,17-19,22-23H2,1-2H3,(H,38,39)/b15-10+/t32-/m1/s1

>  <INCHI_KEY>  (1) 
UCHDWCPVSPXUMX-TZIWLTJVSA-N

>  <FORMULA>  (1) 
C35H36ClNO3S

>  <MOLECULAR_WEIGHT>  (1) 
586.183

>  <EXACT_MASS>  (1) 
585.21044242

>  <JCHEM_ACCEPTOR_COUNT>  (1) 
4

>  <JCHEM_ATOM_COUNT>  (1) 
77

>  <JCHEM_AVERAGE_NEUTRAL_MICROSPECIES_CHARGE>  (1) 
-0.9974995125423266

>  <JCHEM_AVERAGE_POLARIZABILITY>  (1) 
66.36450362769543

>  <JCHEM_BIOAVAILABILITY>  (1) 
0

>  <JCHEM_DONOR_COUNT>  (1) 
2

>  <JCHEM_FORMAL_CHARGE>  (1) 
0

>  <JCHEM_GHOSE_FILTER>  (1) 
0

>  <JCHEM_IUPAC>  (1) 
2-[1-({[(1R)-1-{3-[(1E)-2-(7-chloroquinolin-2-yl)ethenyl]phenyl}-3-[2-(2-hydroxypropan-2-yl)phenyl]propyl]sulfanyl}methyl)cyclopropyl]acetic acid

>  <ALOGPS_LOGP>  (1) 
7.25

>  <JCHEM_LOGP>  (1) 
8.493533064849995

>  <ALOGPS_LOGS>  (1) 
-7.85

>  <JCHEM_MDDR_LIKE_RULE>  (1) 
1

>  <JCHEM_NEUTRAL_CHARGE>  (1) 
-1

>  <JCHEM_NUMBER_OF_RINGS>  (1) 
5

>  <JCHEM_PHYSIOLOGICAL_CHARGE>  (1) 
-1

>  <JCHEM_PKA>  (1) 
14.603668525945848

>  <JCHEM_PKA_STRONGEST_ACIDIC>  (1) 
4.40060890783993

>  <JCHEM_PKA_STRONGEST_BASIC>  (1) 
3.1215483614005577

>  <JCHEM_POLAR_SURFACE_AREA>  (1) 
70.42

>  <JCHEM_REFRACTIVITY>  (1) 
169.50389999999996

>  <JCHEM_ROTATABLE_BOND_COUNT>  (1) 
12

>  <JCHEM_RULE_OF_FIVE>  (1) 
0

>  <ALOGPS_SOLUBILITY>  (1) 
8.20e-06 g/l

>  <JCHEM_TRADITIONAL_IUPAC>  (1) 
tetrahydrofolic acid

>  <JCHEM_VEBER_RULE>  (1) 
0

>  <DRUGBANK_ID>  (1) 
DB00471

>  <SECONDARY_ACCESSION_NUMBERS>  (1) 
APRD00434

>  <DRUG_GROUPS>  (1) 
approved; investigational

>  <GENERIC_NAME>  (1) 
Montelukast

>  <SYNONYMS>  (1) 
(R-(E))-1-(((1-(3-(2-(7-Chloro-2-quinolinyl)ethenyl)phenyl)-3-(2-(1-hydroxy-1-methylethyl)phenyl)propyl)thio)methyl)cyclopropaneacetic acid; 1-[[[(1 R)-1-[3-[(1E)-2-(7-chloro-2-quinolinyl)ethenyl] phenyl]-3-[2-(1-hydroxy-1-methylethyl)phenyl]propyl]sulfanyl]methyl]cyclopropaneacetic acid; Montélukast; Montelukast; Montelukastum

>  <PRODUCTS>  (1) 
Accel-montelukast Sodium Tablets; Ach-montelukast; Ag-montelukast; Apo-montelukast; Apo-montelukast Sodium; Apo-montelukast Sodium Chewable; Auro-montelukast; Auro-montelukast Chewable Tablet; Bio-montelukast; Dom-montelukast; Dom-montelukast Fc; Ipg-montelukast; Jamp Montelukast Chewable Tablets; Jamp-montelukast; M-montelukast; Mar-montelukast; Mint-montelukast; Montelukast; Montelukast Sodium; Montelukast sodium; Montelukast sodium chewable; Mylan-montelukast; Nat-montelukast; Nra-montelukast; Ntp-montelukast; PMS-montelukast; PMS-montelukast Fc; Pendo-montelukast; Pendo-montelukast Fc; Priva-montelukast; Q-montelukast; Ran-montelukast; Ratio-montelukast; Riva-montelukast; Riva-montelukast Fc; Sandoz Montelukast; Singulair; Spc-montelukast; Teva-montelukast; Uni-montelukast; Van-montelukast

>  <INTERNATIONAL_BRANDS>  (1) 
Lukotas; Molly; Monocast; Monteflo; Montelo-10; Montene; Respaire; Surfair; Telumantes; Ventek; Ventilar; Xalar; Zespira

>  <SALTS>  (1) 
Montelukast sodium

$$$$
