
     RDKit          2D

 15  9  0  0  0  0  0  0  0  0999 V2000
    0.7145    0.0000    0.0000 Cl  0  0  0  0  0  0  0  0  0  0  0  0
    0.7145    4.1251    0.0000 Cl  0  0  0  0  0  0  0  0  0  0  0  0
    3.7935    4.1251    0.0000 Cl  0  0  0  0  0  0  0  0  0  0  0  0
    3.7935    2.0625    0.0000 Cl  0  0  0  0  0  0  0  0  0  0  0  0
    1.4290    0.4125    0.0000 O   0  0  0  0  0  0  0  0  0  0  0  0
    1.4290    4.5376    0.0000 O   0  0  0  0  0  0  0  0  0  0  0  0
    4.5080    4.5376    0.0000 O   0  0  0  0  0  0  0  0  0  0  0  0
    4.5080    2.4751    0.0000 O   0  0  0  0  0  0  0  0  0  0  0  0
    0.0000    0.4125    0.0000 O   0  0  0  0  0  0  0  0  0  0  0  0
    0.0000    4.5376    0.0000 O   0  0  0  0  0  0  0  0  0  0  0  0
    3.0791    4.5376    0.0000 O   0  0  0  0  0  0  0  0  0  0  0  0
    3.0791    2.4751    0.0000 O   0  0  0  0  0  0  0  0  0  0  0  0
    3.7935    0.0000    0.0000 O   0  0  0  0  0  0  0  0  0  0  0  0
    1.1270    2.0625    0.0000 O   0  0  0  0  0  0  0  0  0  0  0  0
    0.3020    2.0625    0.0000 O   0  0  0  0  0  0  0  0  0  0  0  0
  1  5  1  0
  1  9  1  0
  2  6  1  0
  2 10  1  0
  3  7  1  0
  3 11  1  0
  4  8  1  0
  4 12  1  0
 14 15  2  0
M  CHG  8   1   1   2   1   3   1   4   1   5  -1   6  -1   7  -1   8  -1
M  CHG  4   9  -1  10  -1  11  -1  12  -1
M  END
>  <DATABASE_ID>  (1) 
DB05389

>  <DATABASE_NAME>  (1) 
drugbank

>  <SMILES>  (1) 
O.O=O.[O-][Cl]=O.[O-][Cl]=O.[O-][Cl]=O.[O-][Cl]=O

>  <INCHI_IDENTIFIER>  (1) 
InChI=1S/4ClHO2.O2.H2O/c4*2-1-3;1-2;/h4*(H,2,3);;1H2/p-4

>  <INCHI_KEY>  (1) 
VOWOEBADKMXUBU-UHFFFAOYSA-J

>  <FORMULA>  (1) 
Cl4H2O11

>  <MOLECULAR_WEIGHT>  (1) 
319.821

>  <EXACT_MASS>  (1) 
317.835121734

>  <JCHEM_ACCEPTOR_COUNT>  (1) 
2

>  <JCHEM_ATOM_COUNT>  (1) 
17

>  <JCHEM_AVERAGE_NEUTRAL_MICROSPECIES_CHARGE>  (1) 
-0.9999999999973107

>  <JCHEM_AVERAGE_POLARIZABILITY>  (1) 
3.9128240052884733

>  <JCHEM_BIOAVAILABILITY>  (1) 
1

>  <JCHEM_DONOR_COUNT>  (1) 
0

>  <JCHEM_FORMAL_CHARGE>  (1) 
-4

>  <JCHEM_GHOSE_FILTER>  (1) 
0

>  <JCHEM_IUPAC>  (1) 
dioxygen hydrate tetrachlorite

>  <ALOGPS_LOGP>  (1) 
-0.91

>  <JCHEM_LOGP>  (1) 
0.17957803266666666

>  <ALOGPS_LOGS>  (1) 
0.77

>  <JCHEM_MDDR_LIKE_RULE>  (1) 
0

>  <JCHEM_NEUTRAL_CHARGE>  (1) 
-1

>  <JCHEM_NUMBER_OF_RINGS>  (1) 
0

>  <JCHEM_PHYSIOLOGICAL_CHARGE>  (1) 
-1

>  <JCHEM_PKA_STRONGEST_ACIDIC>  (1) 
-4.570353886854154

>  <JCHEM_POLAR_SURFACE_AREA>  (1) 
40.129999999999995

>  <JCHEM_REFRACTIVITY>  (1) 
9.0221

>  <JCHEM_ROTATABLE_BOND_COUNT>  (1) 
0

>  <JCHEM_RULE_OF_FIVE>  (1) 
1

>  <ALOGPS_SOLUBILITY>  (1) 
5.02e+02 g/l

>  <JCHEM_TRADITIONAL_IUPAC>  (1) 
tetrahydrofolic acid

>  <JCHEM_VEBER_RULE>  (1) 
0

>  <DRUGBANK_ID>  (1) 
DB05389

>  <DRUG_GROUPS>  (1) 
approved; investigational

>  <GENERIC_NAME>  (1) 
Tetrachlorodecaoxide

>  <SYNONYMS>  (1) 
TCDO; Tetrachlorodecaoxide; Tetrachlorodecaoxygen

$$$$
