
     RDKit          2D

 23 26  0  0  0  0  0  0  0  0999 V2000
   -0.3611   -0.3548    0.0000 C   0  0  0  0  0  0  0  0  0  0  0  0
   -1.0876    0.0585    0.0000 C   0  0  0  0  0  0  0  0  0  0  0  0
   -1.8016   -0.3548    0.0000 C   0  0  0  0  0  0  0  0  0  0  0  0
    0.0522    0.3674    0.0000 C   0  0  0  0  0  0  0  0  0  0  0  0
   -2.5156    0.0585    0.0000 C   0  0  0  0  0  0  0  0  0  0  0  0
    1.2797    1.0813    0.0000 N   0  0  0  0  0  0  0  0  0  0  0  0
   -2.5156    0.8809    0.0000 C   0  0  0  0  0  0  0  0  0  0  0  0
   -1.0876    0.8726    0.0000 C   0  0  0  0  0  0  0  0  0  0  0  0
   -1.8016    1.2943    0.0000 C   0  0  0  0  0  0  0  0  0  0  0  0
   -2.1398    0.4843    0.0000 C   0  0  0  0  0  0  0  0  0  0  0  0
   -0.7745   -1.0855    0.0000 C   0  0  0  0  0  0  0  0  0  0  0  0
    0.8663    0.3674    0.0000 C   0  0  0  0  0  0  0  0  0  0  0  0
    0.3528   -0.7682    0.0000 O   0  0  0  0  0  0  0  0  0  0  0  0
    0.8663    1.7995    0.0000 C   0  0  0  0  0  0  0  0  0  0  0  0
    2.1022    1.0688    0.0000 C   0  0  0  0  0  0  0  0  0  0  0  0
   -0.3737   -1.7995    0.0000 C   0  0  0  0  0  0  0  0  0  0  0  0
   -1.5928   -1.0730    0.0000 C   0  0  0  0  0  0  0  0  0  0  0  0
    2.5156    1.7827    0.0000 C   0  0  0  0  0  0  0  0  0  0  0  0
    1.2797    2.5093    0.0000 C   0  0  0  0  0  0  0  0  0  0  0  0
   -2.0270   -1.7995    0.0000 C   0  0  0  0  0  0  0  0  0  0  0  0
   -0.7745   -2.5093    0.0000 C   0  0  0  0  0  0  0  0  0  0  0  0
   -1.6012   -2.5093    0.0000 C   0  0  0  0  0  0  0  0  0  0  0  0
    2.1022    2.5093    0.0000 C   0  0  0  0  0  0  0  0  0  0  0  0
  2  1  1  0
  3  2  1  0
  4  1  1  0
  5  3  1  0
  6 12  1  0
  7  9  1  0
  8  2  1  0
  9  8  1  0
 10  3  1  0
 11  1  1  0
 12  4  1  0
 13  1  1  0
 14  6  1  0
 15  6  1  0
 16 11  2  0
 17 11  1  0
 18 15  1  0
 19 14  1  0
 20 17  2  0
 21 16  1  0
 22 20  1  0
 23 18  1  0
  9 10  1  0
 21 22  2  0
  5  7  2  0
 19 23  1  0
M  END
>  <DATABASE_ID>  (1) 
DB00810

>  <DATABASE_NAME>  (1) 
drugbank

>  <SMILES>  (1) 
OC(CCN1CCCCC1)(C1CC2CC1C=C2)C1=CC=CC=C1

>  <INCHI_IDENTIFIER>  (1) 
InChI=1S/C21H29NO/c23-21(19-7-3-1-4-8-19,11-14-22-12-5-2-6-13-22)20-16-17-9-10-18(20)15-17/h1,3-4,7-10,17-18,20,23H,2,5-6,11-16H2

>  <INCHI_KEY>  (1) 
YSXKPIUOCJLQIE-UHFFFAOYSA-N

>  <FORMULA>  (1) 
C21H29NO

>  <MOLECULAR_WEIGHT>  (1) 
311.4611

>  <EXACT_MASS>  (1) 
311.224914555

>  <JCHEM_ACCEPTOR_COUNT>  (1) 
2

>  <JCHEM_ATOM_COUNT>  (1) 
52

>  <JCHEM_AVERAGE_POLARIZABILITY>  (1) 
36.87896131605011

>  <JCHEM_BIOAVAILABILITY>  (1) 
1

>  <JCHEM_DONOR_COUNT>  (1) 
1

>  <JCHEM_FORMAL_CHARGE>  (1) 
0

>  <JCHEM_GHOSE_FILTER>  (1) 
1

>  <JCHEM_IUPAC>  (1) 
1-{bicyclo[2.2.1]hept-5-en-2-yl}-1-phenyl-3-(piperidin-1-yl)propan-1-ol

>  <ALOGPS_LOGP>  (1) 
4.28

>  <JCHEM_LOGP>  (1) 
3.5365074619999994

>  <ALOGPS_LOGS>  (1) 
-4.86

>  <JCHEM_MDDR_LIKE_RULE>  (1) 
0

>  <JCHEM_NUMBER_OF_RINGS>  (1) 
4

>  <JCHEM_PHYSIOLOGICAL_CHARGE>  (1) 
1

>  <JCHEM_PKA_STRONGEST_ACIDIC>  (1) 
13.820096784776485

>  <JCHEM_PKA_STRONGEST_BASIC>  (1) 
9.297995719799305

>  <JCHEM_POLAR_SURFACE_AREA>  (1) 
23.47

>  <JCHEM_REFRACTIVITY>  (1) 
97.0158

>  <JCHEM_ROTATABLE_BOND_COUNT>  (1) 
5

>  <JCHEM_RULE_OF_FIVE>  (1) 
1

>  <ALOGPS_SOLUBILITY>  (1) 
4.26e-03 g/l

>  <JCHEM_TRADITIONAL_IUPAC>  (1) 
biperiden

>  <JCHEM_VEBER_RULE>  (1) 
1

>  <DRUGBANK_ID>  (1) 
DB00810

>  <SECONDARY_ACCESSION_NUMBERS>  (1) 
APRD00725

>  <DRUG_GROUPS>  (1) 
approved; investigational; withdrawn

>  <GENERIC_NAME>  (1) 
Biperiden

>  <SYNONYMS>  (1) 
1-Bicyclo[2.2.1]hept-5-en-2-yl-1-phenyl-3-piperidin-1-yl-propan-1-ol; alpha-5-norbornen-2-yl-alpha-phenyl-1-piperidinepropanol; alpha-bicyclo[2.2.1]hept-5-en-2-yl-alpha-phenyl-1-piperidinepropanol; Biperiden; Biperidene; Biperideno; Biperidenum

>  <PRODUCTS>  (1) 
Akineton; Akineton Tab 2mg

>  <INTERNATIONAL_BRANDS>  (1) 
Bilino; Ipsatol

>  <SALTS>  (1) 
Biperiden hydrochloride; Biperiden lactate

$$$$
