236
     RDKit          2D

 16 16  0  0  0  0  0  0  0  0999 V2000
    1.6500   -3.3000    0.0000 Br  0  0  0  0  0  0  0  0  0  0  0  0
    4.5079    3.3000    0.0000 Br  0  0  0  0  0  0  0  0  0  0  0  0
    3.7935   -2.0625    0.0000 O   0  0  0  0  0  0  0  0  0  0  0  0
    2.3645    2.0625    0.0000 O   0  0  0  0  0  0  0  0  0  0  0  0
    3.0790   -0.8250    0.0000 N   0  0  0  0  0  0  0  0  0  0  0  0
    3.0790    0.8250    0.0000 N   0  0  0  0  0  0  0  0  0  0  0  0
    3.7935   -0.4125    0.0000 C   0  0  0  0  0  0  0  0  0  0  0  0
    2.3645   -0.4125    0.0000 C   0  0  0  0  0  0  0  0  0  0  0  0
    3.7935    0.4125    0.0000 C   0  0  0  0  0  0  0  0  0  0  0  0
    2.3645    0.4125    0.0000 C   0  0  0  0  0  0  0  0  0  0  0  0
    3.0790   -1.6500    0.0000 C   0  0  0  0  0  0  0  0  0  0  0  0
    3.0790    1.6500    0.0000 C   0  0  0  0  0  0  0  0  0  0  0  0
    2.3645   -2.0625    0.0000 C   0  0  0  0  0  0  0  0  0  0  0  0
    3.7935    2.0625    0.0000 C   0  0  0  0  0  0  0  0  0  0  0  0
    2.3645   -2.8875    0.0000 C   0  0  0  0  0  0  0  0  0  0  0  0
    3.7935    2.8875    0.0000 C   0  0  0  0  0  0  0  0  0  0  0  0
  1 15  1  0
  2 16  1  0
  3 11  2  0
  4 12  2  0
  5  7  1  0
  5  8  1  0
  5 11  1  0
  6  9  1  0
  6 10  1  0
  6 12  1  0
  7  9  1  0
  8 10  1  0
 11 13  1  0
 12 14  1  0
 13 15  1  0
 14 16  1  0
M  END
>  <DATABASE_ID>  (1) 
DB00236

>  <DATABASE_NAME>  (1) 
drugbank

>  <SMILES>  (1) 
BrCCC(=O)N1CCN(CC1)C(=O)CCBr

>  <INCHI_IDENTIFIER>  (1) 
InChI=1S/C10H16Br2N2O2/c11-3-1-9(15)13-5-7-14(8-6-13)10(16)2-4-12/h1-8H2

>  <INCHI_KEY>  (1) 
NJBFOOCLYDNZJN-UHFFFAOYSA-N

>  <FORMULA>  (1) 
C10H16Br2N2O2

>  <MOLECULAR_WEIGHT>  (1) 
356.054

>  <EXACT_MASS>  (1) 
353.95785306

>  <JCHEM_ACCEPTOR_COUNT>  (1) 
2

>  <JCHEM_ATOM_COUNT>  (1) 
32

>  <JCHEM_AVERAGE_NEUTRAL_MICROSPECIES_CHARGE>  (1) 
6.803198355509219e-09

>  <JCHEM_AVERAGE_POLARIZABILITY>  (1) 
28.439271640934393

>  <JCHEM_BIOAVAILABILITY>  (1) 
1

>  <JCHEM_DONOR_COUNT>  (1) 
0

>  <JCHEM_FORMAL_CHARGE>  (1) 
0

>  <JCHEM_GHOSE_FILTER>  (1) 
1

>  <JCHEM_IUPAC>  (1) 
3-bromo-1-[4-(3-bromopropanoyl)piperazin-1-yl]propan-1-one

>  <ALOGPS_LOGP>  (1) 
1.09

>  <JCHEM_LOGP>  (1) 
0.4107813379999997

>  <ALOGPS_LOGS>  (1) 
-2.20

>  <JCHEM_MDDR_LIKE_RULE>  (1) 
0

>  <JCHEM_NEUTRAL_CHARGE>  (1) 
0

>  <JCHEM_NUMBER_OF_RINGS>  (1) 
1

>  <JCHEM_PHYSIOLOGICAL_CHARGE>  (1) 
0

>  <JCHEM_PKA_STRONGEST_BASIC>  (1) 
-1.2556815410743145

>  <JCHEM_POLAR_SURFACE_AREA>  (1) 
40.620000000000005

>  <JCHEM_REFRACTIVITY>  (1) 
69.45280000000001

>  <JCHEM_ROTATABLE_BOND_COUNT>  (1) 
4

>  <JCHEM_RULE_OF_FIVE>  (1) 
1

>  <ALOGPS_SOLUBILITY>  (1) 
2.24e+00 g/l

>  <JCHEM_TRADITIONAL_IUPAC>  (1) 
biotin

>  <JCHEM_VEBER_RULE>  (1) 
0

>  <DRUGBANK_ID>  (1) 
DB00236

>  <SECONDARY_ACCESSION_NUMBERS>  (1) 
APRD00693

>  <DRUG_GROUPS>  (1) 
approved

>  <GENERIC_NAME>  (1) 
Pipobroman

>  <SYNONYMS>  (1) 
1,4-bis(3-bromopropionyl)piperazine; N,N-bis-(3-bromopropionyl)-piperazine; Pipobroman; Pipobromanum

>  <INTERNATIONAL_BRANDS>  (1) 
Vercite; Vercyte

$$$$
