
     RDKit          2D

 25 29  0  0  0  0  0  0  0  0999 V2000
    2.8579    1.7935    0.0000 O   0  0  0  0  0  0  0  0  0  0  0  0
    2.1434    1.3809    0.0000 C   0  0  0  0  0  0  0  0  0  0  0  0
    1.4289    0.1434    0.0000 C   0  0  0  0  0  0  0  0  0  0  0  0
    2.1434    0.5559    0.0000 C   0  0  0  0  0  0  0  0  0  0  0  0
    0.0000    0.1434    0.0000 C   0  0  0  0  0  0  0  0  0  0  0  0
    0.7145    0.5559    0.0000 C   0  0  0  0  0  0  0  0  0  0  0  0
   -0.7145    0.5559    0.0000 C   0  0  0  0  0  0  0  0  0  0  0  0
    0.7145    1.3809    0.0000 C   0  0  0  0  0  0  0  0  0  0  0  0
   -0.7145    1.3809    0.0000 C   0  0  0  0  0  0  0  0  0  0  0  0
   -1.4289    0.1434    0.0000 C   0  0  0  0  0  0  0  0  0  0  0  0
    1.4289    1.7935    0.0000 C   0  0  0  0  0  0  0  0  0  0  0  0
    0.0000    1.7935    0.0000 O   0  0  0  0  0  0  0  0  0  0  0  0
   -1.4289    1.7935    0.0000 C   0  0  0  0  0  0  0  0  0  0  0  0
   -2.1434    0.5559    0.0000 C   0  0  0  0  0  0  0  0  0  0  0  0
   -2.1434    1.3809    0.0000 C   0  0  0  0  0  0  0  0  0  0  0  0
   -2.8579    1.7935    0.0000 O   0  0  0  0  0  0  0  0  0  0  0  0
    0.4125   -1.1261    0.0000 C   0  0  0  0  0  0  0  0  0  0  0  0
    0.6674   -0.3413    0.0000 O   0  0  0  0  0  0  0  0  0  0  0  0
   -0.4125   -1.1261    0.0000 C   0  0  0  0  0  0  0  0  0  0  0  0
   -0.6674   -0.3413    0.0000 C   0  0  0  0  0  0  0  0  0  0  0  0
   -1.4744   -0.1698    0.0000 C   0  0  0  0  0  0  0  0  0  0  0  0
   -2.0264   -0.7830    0.0000 C   0  0  0  0  0  0  0  0  0  0  0  0
   -0.9645   -1.7392    0.0000 C   0  0  0  0  0  0  0  0  0  0  0  0
    0.8974   -1.7935    0.0000 O   0  0  0  0  0  0  0  0  0  0  0  0
   -1.7715   -1.5676    0.0000 C   0  0  0  0  0  0  0  0  0  0  0  0
  2  1  1  0
  4  2  2  0
  3  4  1  0
 18  5  1  0
  5 20  1  0
  6  3  2  0
  5  6  1  0
  5  7  1  0
  6  8  1  0
  7  9  2  0
  7 10  1  0
 11  2  1  0
  8 11  2  0
  9 12  1  0
  8 12  1  0
  9 13  1  0
 10 14  2  0
 13 15  2  0
 14 15  1  0
 15 16  1  0
 17 18  1  0
 19 17  1  0
 17 24  2  0
 19 20  2  0
 23 19  1  0
 20 21  1  0
 21 22  2  0
 22 25  1  0
 25 23  2  0
M  END
>  <DATABASE_ID>  (1) 
DB00693

>  <DATABASE_NAME>  (1) 
drugbank

>  <SMILES>  (1) 
OC1=CC=C2C(OC3=CC(O)=CC=C3C22OC(=O)C3=C2C=CC=C3)=C1

>  <INCHI_IDENTIFIER>  (1) 
InChI=1S/C20H12O5/c21-11-5-7-15-17(9-11)24-18-10-12(22)6-8-16(18)20(15)14-4-2-1-3-13(14)19(23)25-20/h1-10,21-22H

>  <INCHI_KEY>  (1) 
GNBHRKFJIUUOQI-UHFFFAOYSA-N

>  <FORMULA>  (1) 
C20H12O5

>  <MOLECULAR_WEIGHT>  (1) 
332.3063

>  <EXACT_MASS>  (1) 
332.068473494

>  <JCHEM_ACCEPTOR_COUNT>  (1) 
3

>  <JCHEM_ATOM_COUNT>  (1) 
37

>  <JCHEM_AVERAGE_POLARIZABILITY>  (1) 
33.13670573386331

>  <JCHEM_BIOAVAILABILITY>  (1) 
1

>  <JCHEM_DONOR_COUNT>  (1) 
2

>  <JCHEM_FORMAL_CHARGE>  (1) 
0

>  <JCHEM_GHOSE_FILTER>  (1) 
1

>  <JCHEM_IUPAC>  (1) 
3',6'-dihydroxy-3H-spiro[2-benzofuran-1,9'-xanthen]-3-one

>  <ALOGPS_LOGP>  (1) 
2.64

>  <JCHEM_LOGP>  (1) 
3.8803428233333337

>  <ALOGPS_LOGS>  (1) 
-4.11

>  <JCHEM_MDDR_LIKE_RULE>  (1) 
0

>  <JCHEM_NUMBER_OF_RINGS>  (1) 
5

>  <JCHEM_PHYSIOLOGICAL_CHARGE>  (1) 
0

>  <JCHEM_PKA>  (1) 
9.321630268394356

>  <JCHEM_PKA_STRONGEST_ACIDIC>  (1) 
8.719013046508111

>  <JCHEM_PKA_STRONGEST_BASIC>  (1) 
-3.735402715496353

>  <JCHEM_POLAR_SURFACE_AREA>  (1) 
75.99000000000001

>  <JCHEM_REFRACTIVITY>  (1) 
91.22010000000003

>  <JCHEM_ROTATABLE_BOND_COUNT>  (1) 
0

>  <JCHEM_RULE_OF_FIVE>  (1) 
1

>  <ALOGPS_SOLUBILITY>  (1) 
2.55e-02 g/l

>  <JCHEM_TRADITIONAL_IUPAC>  (1) 
fluorescein

>  <JCHEM_VEBER_RULE>  (1) 
0

>  <DRUGBANK_ID>  (1) 
DB00693

>  <SECONDARY_ACCESSION_NUMBERS>  (1) 
APRD00979; EXPT01447; DB07777

>  <DRUG_GROUPS>  (1) 
approved; investigational

>  <GENERIC_NAME>  (1) 
Fluorescein

>  <SYNONYMS>  (1) 
3,6-fluorandiol; 3',6'-dihydroxyfluoran; 9-(o-carboxyphenyl)-6-hydroxy-3-isoxanthenone; 9-(o-carboxyphenyl)-6-hydroxy-3H-xanthen-3-one; C.I. Solvent Yellow 94; D and C Yellow No. 7; D&C Yellow No. 7; Fluorescein; Fluoresceina; Fluoresceína; Fluoresceine; Fluoreszein; Japan Yellow 201; Resorcinolphthalein; Solvent Yellow 94; Yellow fluorescein

>  <PRODUCTS>  (1) 
Ak-fluor; Altafluor; Angiofluor; Angiofluor Lite; Bio Glo; BioGlo; C20H10Na2O5 Fluorescein Sodium Ophthalmic Strips; Diofluor Strips; Dry Eye Test; Flucaine; Fluorescein; Fluorescein Lite; Fluorescein Sodium; Fluorescein Sodium & Benoxinate Hydrochloride Ophthalmic Solution, USP; Fluorescein Sodium and Benoxinate Hydrochloride; Fluorescein Sodium and Proparacaine Hydrochloride; Fluorescite; Fluorescite Inj 25%; Fluorets (fluorescein Ophthalmic Strips); Fluorets - Stp Oph 1mg; Fluorox; Fluress; Fluress Liq Oph; Flurox; Ful-glo; Funduscein 25% Inj; GloStrips; Minims Fluorescein Sodium; Minims Lidocaine and Fluorescein; Odan-fluoracaine; Odan-fluorescein; Odan-fluorets

>  <SALTS>  (1) 
Fluorescein sodium

$$$$
