339
     RDKit          2D

  9  9  0  0  0  0  0  0  0  0999 V2000
    2.8075   -1.2375    0.0000 O   0  0  0  0  0  0  0  0  0  0  0  0
    4.2365   -0.4125    0.0000 N   0  0  0  0  0  0  0  0  0  0  0  0
    4.2365    1.2375    0.0000 N   0  0  0  0  0  0  0  0  0  0  0  0
    2.0930    0.0000    0.0000 N   0  0  0  0  0  0  0  0  0  0  0  0
    3.5220    0.0000    0.0000 C   0  0  0  0  0  0  0  0  0  0  0  0
    3.5220    0.8250    0.0000 C   0  0  0  0  0  0  0  0  0  0  0  0
    2.8075   -0.4125    0.0000 C   0  0  0  0  0  0  0  0  0  0  0  0
    4.9509    0.0000    0.0000 C   0  0  0  0  0  0  0  0  0  0  0  0
    4.9509    0.8250    0.0000 C   0  0  0  0  0  0  0  0  0  0  0  0
  1  7  2  0
  2  5  2  0
  2  8  1  0
  3  6  2  0
  3  9  1  0
  4  7  1  0
  5  6  1  0
  5  7  1  0
  8  9  2  0
M  END
>  <DATABASE_ID>  (1) 
DB00339

>  <DATABASE_NAME>  (1) 
drugbank

>  <SMILES>  (1) 
NC(=O)C1=NC=CN=C1

>  <INCHI_IDENTIFIER>  (1) 
InChI=1S/C5H5N3O/c6-5(9)4-3-7-1-2-8-4/h1-3H,(H2,6,9)

>  <INCHI_KEY>  (1) 
IPEHBUMCGVEMRF-UHFFFAOYSA-N

>  <FORMULA>  (1) 
C5H5N3O

>  <MOLECULAR_WEIGHT>  (1) 
123.1127

>  <EXACT_MASS>  (1) 
123.043261797

>  <JCHEM_ACCEPTOR_COUNT>  (1) 
3

>  <JCHEM_ATOM_COUNT>  (1) 
14

>  <JCHEM_AVERAGE_NEUTRAL_MICROSPECIES_CHARGE>  (1) 
-6.631523212610725e-07

>  <JCHEM_AVERAGE_POLARIZABILITY>  (1) 
11.12950215412805

>  <JCHEM_BIOAVAILABILITY>  (1) 
1

>  <JCHEM_DONOR_COUNT>  (1) 
1

>  <JCHEM_FORMAL_CHARGE>  (1) 
0

>  <JCHEM_GHOSE_FILTER>  (1) 
0

>  <JCHEM_IUPAC>  (1) 
pyrazine-2-carboxamide

>  <ALOGPS_LOGP>  (1) 
-0.71

>  <JCHEM_LOGP>  (1) 
-1.2256084179999998

>  <ALOGPS_LOGS>  (1) 
-0.12

>  <JCHEM_MDDR_LIKE_RULE>  (1) 
0

>  <JCHEM_NEUTRAL_CHARGE>  (1) 
0

>  <JCHEM_NUMBER_OF_RINGS>  (1) 
1

>  <JCHEM_PHYSIOLOGICAL_CHARGE>  (1) 
0

>  <JCHEM_PKA_STRONGEST_ACIDIC>  (1) 
13.059008881045251

>  <JCHEM_PKA_STRONGEST_BASIC>  (1) 
-0.5516975420699695

>  <JCHEM_POLAR_SURFACE_AREA>  (1) 
68.87

>  <JCHEM_REFRACTIVITY>  (1) 
30.450599999999998

>  <JCHEM_ROTATABLE_BOND_COUNT>  (1) 
1

>  <JCHEM_RULE_OF_FIVE>  (1) 
1

>  <ALOGPS_SOLUBILITY>  (1) 
9.37e+01 g/l

>  <JCHEM_TRADITIONAL_IUPAC>  (1) 
biotin

>  <JCHEM_VEBER_RULE>  (1) 
0

>  <DRUGBANK_ID>  (1) 
DB00339

>  <SECONDARY_ACCESSION_NUMBERS>  (1) 
APRD01206

>  <DRUG_GROUPS>  (1) 
approved; investigational

>  <GENERIC_NAME>  (1) 
Pyrazinamide

>  <SYNONYMS>  (1) 
2-carbamylpyrazine; 2-pyrazinecarboxamide; Aldinamide; Pirazinamida; Pirazinamide; Pyrazinamid; Pyrazinamida; Pyrazinamide; Pyrazinamidum; Pyrazine carboxamide; pyrazine-2-carboxamide; Pyrazineamide; Pyrazinecarboxamide; Pyrazinoic acid amide; Pyrizinamide

>  <PRODUCTS>  (1) 
PMS-pyrazinamide; Pdp-pyrazinamide; Pyrazinamide; Rifater; Tebrazid

>  <INTERNATIONAL_BRANDS>  (1) 
Piraldina; Prazina; Pyrafat; Pyrazide; Tebrazid; Tisamid; Zinamide

$$$$
