
     RDKit          2D

 27 31  0  0  0  0  0  0  0  0999 V2000
   -0.9919    0.0929    0.0000 C   0  0  0  0  0  0  0  0  0  0  0  0
   -1.7065   -0.3196    0.0000 C   0  0  0  0  0  0  0  0  0  0  0  0
   -1.7065   -1.1447    0.0000 C   0  0  0  0  0  0  0  0  0  0  0  0
   -0.9919   -1.5571    0.0000 C   0  0  0  0  0  0  0  0  0  0  0  0
   -0.2775   -1.1447    0.0000 C   0  0  0  0  0  0  0  0  0  0  0  0
   -0.2775   -0.3196    0.0000 C   0  0  0  0  0  0  0  0  0  0  0  0
    0.4368    0.0929    0.0000 C   0  0  0  0  0  0  0  0  0  0  0  0
    0.4368   -1.5571    0.0000 C   0  0  0  0  0  0  0  0  0  0  0  0
    1.1514   -1.1447    0.0000 C   0  0  0  0  0  0  0  0  0  0  0  0
    1.1514   -0.3196    0.0000 C   0  0  0  0  0  0  0  0  0  0  0  0
    1.1514    1.3304    0.0000 C   0  0  0  0  0  0  0  0  0  0  0  0
    0.4368    0.9179    0.0000 C   0  0  0  0  0  0  0  0  0  0  0  0
    1.8658    0.0929    0.0000 C   0  0  0  0  0  0  0  0  0  0  0  0
    1.8658    0.9179    0.0000 C   0  0  0  0  0  0  0  0  0  0  0  0
    2.6505    1.1728    0.0000 C   0  0  0  0  0  0  0  0  0  0  0  0
    2.6505   -0.1620    0.0000 C   0  0  0  0  0  0  0  0  0  0  0  0
    3.1354    0.5053    0.0000 C   0  0  0  0  0  0  0  0  0  0  0  0
   -2.4208   -1.5571    0.0000 O   0  0  0  0  0  0  0  0  0  0  0  0
   -2.4208    0.0928    0.0000 C   0  0  0  0  0  0  0  0  0  0  0  0
   -3.1353    0.5053    0.0000 N   0  0  0  0  0  0  0  0  0  0  0  0
   -0.2775   -1.9696    0.0000 O   0  0  0  0  0  0  0  0  0  0  0  0
    0.4368   -0.7320    0.0000 H   0  0  0  0  0  0  0  0  0  0  0  0
    1.8658   -0.7320    0.0000 H   0  0  0  0  0  0  0  0  0  0  0  0
   -0.2775    0.5053    0.0000 C   0  0  0  0  0  0  0  0  0  0  0  0
    1.8658    1.7429    0.0000 C   0  0  0  0  0  0  0  0  0  0  0  0
    2.8640    1.9697    0.0000 O   0  0  0  0  0  0  0  0  0  0  0  0
    1.1514    0.5053    0.0000 H   0  0  0  0  0  0  0  0  0  0  0  0
  1  2  1  0
  2  3  2  0
  3  4  1  0
  4  5  1  0
  1  6  1  0
  7  6  1  0
  6  5  1  0
  5  8  1  1
  8  9  1  0
  9 10  1  0
 10 13  1  0
  7 10  1  0
 12  7  1  0
 11 12  1  0
 11 14  1  0
 13 16  1  0
 14 13  1  0
 15 14  1  0
 16 17  1  0
 15 17  1  0
  3 18  1  0
  2 19  1  0
 19 20  3  0
  5 21  1  0
  4 21  1  6
  7 22  1  6
 13 23  1  6
  6 24  1  1
 14 25  1  1
 15 26  1  1
 10 27  1  1
M  END
>  <DATABASE_ID>  (1) 
DB01108

>  <DATABASE_NAME>  (1) 
drugbank

>  <SMILES>  (1) 
[H][C@@]12CC[C@H](O)[C@@]1(C)CC[C@@]1([H])[C@@]2([H])CC[C@@]23O[C@@H]2C(O)=C(C[C@]13C)C#N

>  <INCHI_IDENTIFIER>  (1) 
InChI=1S/C20H27NO3/c1-18-7-6-14-12(13(18)3-4-15(18)22)5-8-20-17(24-20)16(23)11(10-21)9-19(14,20)2/h12-15,17,22-23H,3-9H2,1-2H3/t12-,13-,14-,15-,17+,18-,19+,20+/m0/s1

>  <INCHI_KEY>  (1) 
KVJXBPDAXMEYOA-CXANFOAXSA-N

>  <FORMULA>  (1) 
C20H27NO3

>  <MOLECULAR_WEIGHT>  (1) 
329.4333

>  <EXACT_MASS>  (1) 
329.199093735

>  <JCHEM_ACCEPTOR_COUNT>  (1) 
4

>  <JCHEM_ATOM_COUNT>  (1) 
51

>  <JCHEM_AVERAGE_POLARIZABILITY>  (1) 
36.80893647467444

>  <JCHEM_BIOAVAILABILITY>  (1) 
1

>  <JCHEM_DONOR_COUNT>  (1) 
2

>  <JCHEM_FORMAL_CHARGE>  (1) 
0

>  <JCHEM_GHOSE_FILTER>  (1) 
1

>  <JCHEM_IUPAC>  (1) 
(1S,2R,6R,8S,11S,12S,15S,16S)-5,15-dihydroxy-2,16-dimethyl-7-oxapentacyclo[9.7.0.0^{2,8}.0^{6,8}.0^{12,16}]octadec-4-ene-4-carbonitrile

>  <ALOGPS_LOGP>  (1) 
2.41

>  <JCHEM_LOGP>  (1) 
2.300783866666666

>  <ALOGPS_LOGS>  (1) 
-3.75

>  <JCHEM_MDDR_LIKE_RULE>  (1) 
0

>  <JCHEM_NUMBER_OF_RINGS>  (1) 
5

>  <JCHEM_PHYSIOLOGICAL_CHARGE>  (1) 
-1

>  <JCHEM_PKA>  (1) 
19.3777053517066

>  <JCHEM_PKA_STRONGEST_ACIDIC>  (1) 
5.231169871976814

>  <JCHEM_PKA_STRONGEST_BASIC>  (1) 
-0.8838175253814861

>  <JCHEM_POLAR_SURFACE_AREA>  (1) 
76.78

>  <JCHEM_REFRACTIVITY>  (1) 
90.17459999999998

>  <JCHEM_ROTATABLE_BOND_COUNT>  (1) 
0

>  <JCHEM_RULE_OF_FIVE>  (1) 
1

>  <ALOGPS_SOLUBILITY>  (1) 
5.92e-02 g/l

>  <JCHEM_TRADITIONAL_IUPAC>  (1) 
(1S,2R,6R,8S,11S,12S,15S,16S)-5,15-dihydroxy-2,16-dimethyl-7-oxapentacyclo[9.7.0.0^{2,8}.0^{6,8}.0^{12,16}]octadec-4-ene-4-carbonitrile

>  <JCHEM_VEBER_RULE>  (1) 
0

>  <DRUGBANK_ID>  (1) 
DB01108

>  <SECONDARY_ACCESSION_NUMBERS>  (1) 
APRD01276

>  <DRUG_GROUPS>  (1) 
approved; vet_approved; withdrawn

>  <GENERIC_NAME>  (1) 
Trilostane

>  <SYNONYMS>  (1) 
Trilostane; Trilostano; Trilostanum

>  <INTERNATIONAL_BRANDS>  (1) 
Desopan; Modrastane; Modrenal

$$$$
