
     RDKit          2D

  7  6  0  0  0  0  0  0  0  0999 V2000
   -0.1914    0.7145    0.0000 N   0  0  0  0  0  0  0  0  0  0  0  0
    0.5230    1.1270    0.0000 C   0  0  0  0  0  0  0  0  0  0  0  0
    1.2375    0.7145    0.0000 C   0  0  0  0  0  0  0  0  0  0  0  0
    1.9520    1.1270    0.0000 C   0  0  0  0  0  0  0  0  0  0  0  0
    2.6664    0.7145    0.0000 C   0  0  0  0  0  0  0  0  0  0  0  0
    3.3809    1.1270    0.0000 O   0  0  0  0  0  0  0  0  0  0  0  0
    2.6664   -0.1105    0.0000 O   0  0  0  0  0  0  0  0  0  0  0  0
  1  2  1  0
  2  3  1  0
  3  4  1  0
  4  5  1  0
  5  6  1  0
  5  7  2  0
M  END
>  <DATABASE_ID>  (1) 
DB02530

>  <DATABASE_NAME>  (1) 
drugbank

>  <SMILES>  (1) 
NCCCC(O)=O

>  <INCHI_IDENTIFIER>  (1) 
InChI=1S/C4H9NO2/c5-3-1-2-4(6)7/h1-3,5H2,(H,6,7)

>  <INCHI_KEY>  (1) 
BTCSSZJGUNDROE-UHFFFAOYSA-N

>  <FORMULA>  (1) 
C4H9NO2

>  <MOLECULAR_WEIGHT>  (1) 
103.1198

>  <EXACT_MASS>  (1) 
103.063328537

>  <JCHEM_ACCEPTOR_COUNT>  (1) 
3

>  <JCHEM_ATOM_COUNT>  (1) 
16

>  <JCHEM_AVERAGE_NEUTRAL_MICROSPECIES_CHARGE>  (1) 
0.00029718906052100813

>  <JCHEM_AVERAGE_POLARIZABILITY>  (1) 
10.620172993817706

>  <JCHEM_BIOAVAILABILITY>  (1) 
1

>  <JCHEM_DONOR_COUNT>  (1) 
2

>  <JCHEM_FORMAL_CHARGE>  (1) 
0

>  <JCHEM_GHOSE_FILTER>  (1) 
0

>  <JCHEM_IUPAC>  (1) 
4-aminobutanoic acid

>  <ALOGPS_LOGP>  (1) 
-2.99

>  <JCHEM_LOGP>  (1) 
-2.8856771979836466

>  <ALOGPS_LOGS>  (1) 
0.55

>  <JCHEM_MDDR_LIKE_RULE>  (1) 
0

>  <JCHEM_NEUTRAL_CHARGE>  (1) 
0

>  <JCHEM_NUMBER_OF_RINGS>  (1) 
0

>  <JCHEM_PHYSIOLOGICAL_CHARGE>  (1) 
0

>  <JCHEM_PKA_STRONGEST_ACIDIC>  (1) 
4.527850005009431

>  <JCHEM_PKA_STRONGEST_BASIC>  (1) 
10.21520969871372

>  <JCHEM_POLAR_SURFACE_AREA>  (1) 
63.32

>  <JCHEM_REFRACTIVITY>  (1) 
25.4578

>  <JCHEM_ROTATABLE_BOND_COUNT>  (1) 
3

>  <JCHEM_RULE_OF_FIVE>  (1) 
1

>  <ALOGPS_SOLUBILITY>  (1) 
3.65e+02 g/l

>  <JCHEM_TRADITIONAL_IUPAC>  (1) 
tetrahydrofolic acid

>  <JCHEM_VEBER_RULE>  (1) 
0

>  <DRUGBANK_ID>  (1) 
DB02530

>  <SECONDARY_ACCESSION_NUMBERS>  (1) 
EXPT00402; DB08850

>  <DRUG_GROUPS>  (1) 
approved; investigational

>  <GENERIC_NAME>  (1) 
gamma-Aminobutyric acid

>  <SYNONYMS>  (1) 
4-aminobutanoic acid; 4-aminobutyric acid; 4Abu; GABA; Gamma amino butyric acid; gamma-Aminobutyric acid; piperidic acid; piperidinic acid; γ-amino-n-butyric acid; γ-aminobutanoic acid; γ-Aminobuttersäure; γ-aminobutyric acid; ω-aminobutyric acid

>  <PRODUCTS>  (1) 
Gongjinhyang Qi and Jin Eye; Hypnosom; Medi-doze Rx Sleep Aid; Medi-doze Sleep Aid; Prazolamine; Therabenzaprine-60; Therabenzaprine-90; Therabenzaprine-90-5; Theracodeine-300; Theracodophen-325; Theracodophen-650; Theracodophen-750; Theracodophen-Low-90; Therafeldamine; Therapentin-60; Therapentin-90; Theraprofen-60; Theraprofen-800; Theraprofen-90; Theraproxen; Theraproxen-500; Theraproxen-90; Theratramadol-60; Theratramadol-90

>  <SALTS>  (1) 
Gamma-Aminobutyric Acid Hydrochloride

$$$$
