
     RDKit          2D

 39 44  0  0  1  0  0  0  0  0999 V2000
    6.2728   -2.9980    0.0000 H   0  0  0  0  0  0  0  0  0  0  0  0
    5.4627   -3.1539    0.0000 C   0  0  0  0  0  0  0  0  0  0  0  0
    4.6525   -3.3098    0.0000 O   0  0  0  0  0  0  0  0  0  0  0  0
    4.1124   -2.6861    0.0000 C   0  0  0  0  0  0  0  0  0  0  0  0
    3.3023   -2.8421    0.0000 C   0  0  0  0  0  0  0  0  0  0  0  0
    2.7622   -2.2184    0.0000 C   0  0  0  0  0  0  0  0  0  0  0  0
    3.0323   -1.4389    0.0000 C   0  0  0  0  0  0  0  0  0  0  0  0
    3.8424   -1.2829    0.0000 C   0  0  0  0  0  0  0  0  0  0  0  0
    4.3825   -1.9066    0.0000 C   0  0  0  0  0  0  0  0  0  0  0  0
    5.1926   -1.7507    0.0000 C   0  0  0  0  0  0  0  0  0  0  0  0
    5.4627   -0.9711    0.0000 C   0  0  0  0  0  0  0  0  0  0  0  0
    6.2728   -0.8152    0.0000 N   0  0  0  0  0  0  0  0  0  0  0  0
    6.8129   -1.4389    0.0000 C   0  0  0  0  0  0  0  0  0  0  0  0
    7.6230   -1.2829    0.0000 C   0  0  0  0  0  0  0  0  0  0  0  0
    8.1631   -1.9066    0.0000 C   0  0  0  0  0  0  0  0  0  0  0  0
    8.9732   -1.7507    0.0000 O   0  0  0  0  0  0  0  0  0  0  0  0
    7.8931   -2.6861    0.0000 C   0  0  0  0  0  0  0  0  0  0  0  0
    7.0829   -2.8421    0.0000 C   0  0  0  0  0  0  0  0  0  0  0  0
    6.5428   -2.2184    0.0000 C   0  0  0  0  0  0  0  0  0  0  0  0
    5.7327   -2.3743    0.0000 C   0  0  0  0  0  0  0  0  0  0  0  0
    1.9521   -2.3743    0.0000 C   0  0  0  0  0  0  0  0  0  0  0  0
    1.1420   -2.5302    0.0000 F   0  0  0  0  0  0  0  0  0  0  0  0
    1.7962   -1.5642    0.0000 F   0  0  0  0  0  0  0  0  0  0  0  0
    2.1080   -3.1845    0.0000 F   0  0  0  0  0  0  0  0  0  0  0  0
    6.0028   -3.7775    0.0000 C   0  0  0  0  0  0  0  0  0  0  0  0
    6.8129   -3.6216    0.0000 C   0  0  0  0  0  0  0  0  0  0  0  0
    7.3530   -4.2452    0.0000 C   0  0  0  0  0  0  0  0  0  0  0  0
    7.0829   -5.0248    0.0000 C   0  0  0  0  0  0  0  0  0  0  0  0
    7.6230   -5.6484    0.0000 O   0  0  0  0  0  0  0  0  0  0  0  0
    7.3530   -6.4280    0.0000 C   0  0  0  0  0  0  0  0  0  0  0  0
    7.8931   -7.0516    0.0000 C   0  0  0  0  0  0  0  0  0  0  0  0
    7.6230   -7.8312    0.0000 N   0  0  0  0  0  0  0  0  0  0  0  0
    7.9833   -8.5734    0.0000 C   0  0  0  0  0  0  0  0  0  0  0  0
    7.2411   -8.9336    0.0000 C   0  0  0  0  0  0  0  0  0  0  0  0
    6.9711   -9.7132    0.0000 C   0  0  0  0  0  0  0  0  0  0  0  0
    7.5112  -10.3368    0.0000 F   0  0  0  0  0  0  0  0  0  0  0  0
    6.8808   -8.1915    0.0000 C   0  0  0  0  0  0  0  0  0  0  0  0
    6.2728   -5.1807    0.0000 C   0  0  0  0  0  0  0  0  0  0  0  0
    5.7327   -4.5571    0.0000 C   0  0  0  0  0  0  0  0  0  0  0  0
  2  1  1  6
  2  3  1  0
  3  4  1  0
  4  5  2  0
  5  6  1  0
  6  7  2  0
  7  8  1  0
  8  9  2  0
  4  9  1  0
  9 10  1  0
 10 11  2  0
 11 12  1  0
 12 13  2  0
 13 14  1  0
 14 15  2  0
 15 16  1  0
 15 17  1  0
 17 18  2  0
 18 19  1  0
 13 19  1  0
 19 20  2  0
  2 20  1  0
 10 20  1  0
  6 21  1  0
 21 22  1  0
 21 23  1  0
 21 24  1  0
  2 25  1  0
 25 26  2  0
 26 27  1  0
 27 28  2  0
 28 29  1  0
 29 30  1  0
 30 31  1  0
 31 32  1  0
 32 33  1  0
 33 34  1  0
 34 35  1  0
 35 36  1  0
 34 37  1  0
 32 37  1  0
 28 38  1  0
 38 39  2  0
 25 39  1  0
M  END
>  <DATABASE_ID>  (1) 
DB19043

>  <DATABASE_NAME>  (1) 
drugbank

>  <SMILES>  (1) 
[H][C@@]1(OC2=CC(=CC=C2C2=C1C1=CC=C(O)C=C1N=C2)C(F)(F)F)C1=CC=C(OCCN2CC(CF)C2)C=C1

>  <INCHI_IDENTIFIER>  (1) 
InChI=1S/C29H24F4N2O3/c30-13-17-15-35(16-17)9-10-37-21-5-1-18(2-6-21)28-27-23-8-4-20(36)12-25(23)34-14-24(27)22-7-3-19(29(31,32)33)11-26(22)38-28/h1-8,11-12,14,17,28,36H,9-10,13,15-16H2/t28-/m1/s1

>  <INCHI_KEY>  (1) 
UVBQMXOKKDCBJN-MUUNZHRXSA-N

>  <FORMULA>  (1) 
C29H24F4N2O3

>  <MOLECULAR_WEIGHT>  (1) 
524.516

>  <EXACT_MASS>  (1) 
524.172305293

>  <DRUGBANK_ID>  (1) 
DB19043

>  <DRUG_GROUPS>  (1) 
approved; investigational

>  <GENERIC_NAME>  (1) 
Imlunestrant

>  <SYNONYMS>  (1) 
(5r)-5-(4-(2-(3-(fluoromethyl)azetidin-1-yl)ethoxy)phenyl)-8-(trifluoromethyl)-5h-(1)benzopyrano(4,3-c)quinolin-2-ol; 5h-(1)benzopyrano(4,3-c)quinolin-2-ol, 5-(4-(2-(3-(fluoromethyl)-1-azetidinyl)ethoxy)phenyl)-8-(trifluoromethyl)-, (5r)-; Imlunestrant

>  <PRODUCTS>  (1) 
Inluriyo

>  <SALTS>  (1) 
Imlunestrant tosylate

$$$$
