662
     RDKit          2D

 28 29  0  0  0  0  0  0  0  0999 V2000
    7.3659    2.0625    0.0000 O   0  0  0  0  0  0  0  0  0  0  0  0
    2.3645   -3.3001    0.0000 O   0  0  0  0  0  0  0  0  0  0  0  0
    5.2224   -3.3001    0.0000 O   0  0  0  0  0  0  0  0  0  0  0  0
    3.7935   -4.1251    0.0000 O   0  0  0  0  0  0  0  0  0  0  0  0
    3.0791   -0.4125    0.0000 O   0  0  0  0  0  0  0  0  0  0  0  0
    8.0804    4.1251    0.0000 N   0  0  0  0  0  0  0  0  0  0  0  0
    4.5080   -0.4125    0.0000 N   0  0  0  0  0  0  0  0  0  0  0  0
    8.0804    3.3001    0.0000 C   0  0  0  0  0  0  0  0  0  0  0  0
    5.2224    0.8250    0.0000 C   0  0  0  0  0  0  0  0  0  0  0  0
    4.5080    0.4125    0.0000 C   0  0  0  0  0  0  0  0  0  0  0  0
    7.3659    2.8876    0.0000 C   0  0  0  0  0  0  0  0  0  0  0  0
    6.6515    1.6500    0.0000 C   0  0  0  0  0  0  0  0  0  0  0  0
    3.7935   -1.6500    0.0000 C   0  0  0  0  0  0  0  0  0  0  0  0
    5.2224    1.6500    0.0000 C   0  0  0  0  0  0  0  0  0  0  0  0
    5.9370    0.4125    0.0000 C   0  0  0  0  0  0  0  0  0  0  0  0
    5.9370    2.0625    0.0000 C   0  0  0  0  0  0  0  0  0  0  0  0
    6.6515    0.8250    0.0000 C   0  0  0  0  0  0  0  0  0  0  0  0
    3.7935   -0.8250    0.0000 C   0  0  0  0  0  0  0  0  0  0  0  0
    4.5080   -2.0625    0.0000 C   0  0  0  0  0  0  0  0  0  0  0  0
    3.0791   -2.0625    0.0000 C   0  0  0  0  0  0  0  0  0  0  0  0
    3.0791   -2.8876    0.0000 C   0  0  0  0  0  0  0  0  0  0  0  0
    4.5080   -2.8876    0.0000 C   0  0  0  0  0  0  0  0  0  0  0  0
    3.7935   -3.3001    0.0000 C   0  0  0  0  0  0  0  0  0  0  0  0
    7.3659    4.5376    0.0000 C   0  0  0  0  0  0  0  0  0  0  0  0
    8.7949    4.5376    0.0000 C   0  0  0  0  0  0  0  0  0  0  0  0
    1.6500   -2.8876    0.0000 C   0  0  0  0  0  0  0  0  0  0  0  0
    5.9370   -2.8876    0.0000 C   0  0  0  0  0  0  0  0  0  0  0  0
    3.0791   -4.5376    0.0000 C   0  0  0  0  0  0  0  0  0  0  0  0
  1 11  1  0
  1 12  1  0
  2 21  1  0
  2 26  1  0
  3 22  1  0
  3 27  1  0
  4 23  1  0
  4 28  1  0
  5 18  2  0
  6  8  1  0
  6 24  1  0
  6 25  1  0
  7 10  1  0
  7 18  1  0
  8 11  1  0
  9 10  1  0
  9 14  2  0
  9 15  1  0
 12 16  2  0
 12 17  1  0
 13 18  1  0
 13 19  2  0
 13 20  1  0
 14 16  1  0
 15 17  2  0
 19 22  1  0
 20 21  2  0
 21 23  1  0
 22 23  2  0
M  END
>  <DATABASE_ID>  (1) 
DB00662

>  <DATABASE_NAME>  (1) 
drugbank

>  <SMILES>  (1) 
COC1=CC(=CC(OC)=C1OC)C(=O)NCC1=CC=C(OCCN(C)C)C=C1

>  <INCHI_IDENTIFIER>  (1) 
InChI=1S/C21H28N2O5/c1-23(2)10-11-28-17-8-6-15(7-9-17)14-22-21(24)16-12-18(25-3)20(27-5)19(13-16)26-4/h6-9,12-13H,10-11,14H2,1-5H3,(H,22,24)

>  <INCHI_KEY>  (1) 
FEZBIKUBAYAZIU-UHFFFAOYSA-N

>  <FORMULA>  (1) 
C21H28N2O5

>  <MOLECULAR_WEIGHT>  (1) 
388.4574

>  <EXACT_MASS>  (1) 
388.199822016

>  <JCHEM_ACCEPTOR_COUNT>  (1) 
6

>  <JCHEM_ATOM_COUNT>  (1) 
56

>  <JCHEM_AVERAGE_NEUTRAL_MICROSPECIES_CHARGE>  (1) 
0.9833591440753873

>  <JCHEM_AVERAGE_POLARIZABILITY>  (1) 
43.193858496565646

>  <JCHEM_BIOAVAILABILITY>  (1) 
1

>  <JCHEM_DONOR_COUNT>  (1) 
1

>  <JCHEM_FORMAL_CHARGE>  (1) 
0

>  <JCHEM_GHOSE_FILTER>  (1) 
1

>  <JCHEM_IUPAC>  (1) 
N-({4-[2-(dimethylamino)ethoxy]phenyl}methyl)-3,4,5-trimethoxybenzamide

>  <ALOGPS_LOGP>  (1) 
2.44

>  <JCHEM_LOGP>  (1) 
2.159994753

>  <ALOGPS_LOGS>  (1) 
-3.99

>  <JCHEM_MDDR_LIKE_RULE>  (1) 
0

>  <JCHEM_NEUTRAL_CHARGE>  (1) 
1

>  <JCHEM_NUMBER_OF_RINGS>  (1) 
2

>  <JCHEM_PHYSIOLOGICAL_CHARGE>  (1) 
1

>  <JCHEM_PKA_STRONGEST_ACIDIC>  (1) 
14.680575386598957

>  <JCHEM_PKA_STRONGEST_BASIC>  (1) 
8.771536009796227

>  <JCHEM_POLAR_SURFACE_AREA>  (1) 
69.26

>  <JCHEM_REFRACTIVITY>  (1) 
108.51759999999996

>  <JCHEM_ROTATABLE_BOND_COUNT>  (1) 
10

>  <JCHEM_RULE_OF_FIVE>  (1) 
1

>  <ALOGPS_SOLUBILITY>  (1) 
3.98e-02 g/l

>  <JCHEM_TRADITIONAL_IUPAC>  (1) 
tetrahydrofolic acid

>  <JCHEM_VEBER_RULE>  (1) 
0

>  <DRUGBANK_ID>  (1) 
DB00662

>  <SECONDARY_ACCESSION_NUMBERS>  (1) 
APRD01277

>  <DRUG_GROUPS>  (1) 
approved

>  <GENERIC_NAME>  (1) 
Trimethobenzamide

>  <SYNONYMS>  (1) 
N-[[4-(2-dimethylaminoethoxy)phenyl]methyl]-3,4,5-trimethoxybenzamide; Trimethobenzamide; Trimethobenzamidum; Trimetobenzamida

>  <PRODUCTS>  (1) 
Tigan; Tigan(r) (trimethobenzamide Hydrochloride); Trimethobenzamide; Trimethobenzamide Hydorchloride; Trimethobenzamide Hydrochloride; Trimethobenzamide hydrochloride

>  <INTERNATIONAL_BRANDS>  (1) 
Benzacot; Stemetic; Tebamide; Tribenzagan; Trimazide

>  <SALTS>  (1) 
Trimethobenzamide hydrochloride

$$$$
