
     RDKit          2D

 26 28  0  0  0  0  0  0  0  0999 V2000
    3.5724   -1.2375    0.0000 C   0  0  0  0  0  0  0  0  0  0  0  0
    2.8579   -1.6500    0.0000 C   0  0  0  0  0  0  0  0  0  0  0  0
    0.7145   -1.2375    0.0000 C   0  0  0  0  0  0  0  0  0  0  0  0
    1.4289   -2.4750    0.0000 C   0  0  0  0  0  0  0  0  0  0  0  0
    7.6919    0.2583    0.0000 C   0  0  0  0  0  0  0  0  0  0  0  0
    6.4801    1.0156    0.0000 C   0  0  0  0  0  0  0  0  0  0  0  0
    8.1291    0.9580    0.0000 C   0  0  0  0  0  0  0  0  0  0  0  0
    6.9173    1.7152    0.0000 C   0  0  0  0  0  0  0  0  0  0  0  0
    0.0000   -1.6500    0.0000 C   0  0  0  0  0  0  0  0  0  0  0  0
    0.7145   -2.8875    0.0000 C   0  0  0  0  0  0  0  0  0  0  0  0
    5.7158    0.0000    0.0000 C   0  0  0  0  0  0  0  0  0  0  0  0
    6.4302   -1.2375    0.0000 C   0  0  0  0  0  0  0  0  0  0  0  0
    4.2868   -1.6500    0.0000 C   0  0  0  0  0  0  0  0  0  0  0  0
    5.0013   -0.4125    0.0000 C   0  0  0  0  0  0  0  0  0  0  0  0
    5.7158   -1.6500    0.0000 C   0  0  0  0  0  0  0  0  0  0  0  0
    1.4289   -1.6500    0.0000 C   0  0  0  0  0  0  0  0  0  0  0  0
    6.8674    0.2871    0.0000 C   0  0  0  0  0  0  0  0  0  0  0  0
    7.7418    1.6864    0.0000 C   0  0  0  0  0  0  0  0  0  0  0  0
    0.0000   -2.4750    0.0000 C   0  0  0  0  0  0  0  0  0  0  0  0
    2.1434   -1.2375    0.0000 C   0  0  0  0  0  0  0  0  0  0  0  0
    6.4302   -0.4125    0.0000 C   0  0  0  0  0  0  0  0  0  0  0  0
    8.1790    2.3861    0.0000 Br  0  0  0  0  0  0  0  0  0  0  0  0
   -0.7145   -2.8875    0.0000 F   0  0  0  0  0  0  0  0  0  0  0  0
    5.0013   -1.2375    0.0000 N   0  0  0  0  0  0  0  0  0  0  0  0
    2.1434   -0.4125    0.0000 O   0  0  0  0  0  0  0  0  0  0  0  0
    7.2547   -0.3837    0.0000 O   0  0  0  0  0  0  0  0  0  0  0  0
  2  1  1  0
  7  5  2  0
  8  6  1  0
  9  3  2  0
 10  4  1  0
 13  1  1  0
 14 11  1  0
 15 12  1  0
 16  3  1  0
 16  4  2  0
 17  5  1  0
 17  6  2  0
 18  7  1  0
 18  8  2  0
 19  9  1  0
 19 10  2  0
 20  2  1  0
 20 16  1  0
 21 11  1  0
 21 12  1  0
 21 17  1  0
 22 18  1  0
 23 19  1  0
 24 13  1  0
 24 14  1  0
 24 15  1  0
 25 20  2  0
 26 21  1  0
M  END
>  <DATABASE_ID>  (1) 
DB12401

>  <DATABASE_NAME>  (1) 
drugbank

>  <SMILES>  (1) 
OC1(CCN(CCCC(=O)C2=CC=C(F)C=C2)CC1)C1=CC=C(Br)C=C1

>  <INCHI_IDENTIFIER>  (1) 
InChI=1S/C21H23BrFNO2/c22-18-7-5-17(6-8-18)21(26)11-14-24(15-12-21)13-1-2-20(25)16-3-9-19(23)10-4-16/h3-10,26H,1-2,11-15H2

>  <INCHI_KEY>  (1) 
RKLNONIVDFXQRX-UHFFFAOYSA-N

>  <FORMULA>  (1) 
C21H23BrFNO2

>  <MOLECULAR_WEIGHT>  (1) 
420.322

>  <EXACT_MASS>  (1) 
419.08962

>  <JCHEM_ACCEPTOR_COUNT>  (1) 
3

>  <JCHEM_ATOM_COUNT>  (1) 
49

>  <JCHEM_AVERAGE_POLARIZABILITY>  (1) 
41.36510268376796

>  <JCHEM_BIOAVAILABILITY>  (1) 
1

>  <JCHEM_DONOR_COUNT>  (1) 
1

>  <JCHEM_FORMAL_CHARGE>  (1) 
0

>  <JCHEM_GHOSE_FILTER>  (1) 
1

>  <JCHEM_IUPAC>  (1) 
4-[4-(4-bromophenyl)-4-hydroxypiperidin-1-yl]-1-(4-fluorophenyl)butan-1-one

>  <ALOGPS_LOGP>  (1) 
3.78

>  <JCHEM_LOGP>  (1) 
3.825821749666667

>  <ALOGPS_LOGS>  (1) 
-4.76

>  <JCHEM_MDDR_LIKE_RULE>  (1) 
1

>  <JCHEM_NUMBER_OF_RINGS>  (1) 
3

>  <JCHEM_PHYSIOLOGICAL_CHARGE>  (1) 
1

>  <JCHEM_PKA>  (1) 
16.398219369428418

>  <JCHEM_PKA_STRONGEST_ACIDIC>  (1) 
13.97155974791741

>  <JCHEM_PKA_STRONGEST_BASIC>  (1) 
8.067833821175004

>  <JCHEM_POLAR_SURFACE_AREA>  (1) 
40.540000000000006

>  <JCHEM_REFRACTIVITY>  (1) 
105.40989999999998

>  <JCHEM_ROTATABLE_BOND_COUNT>  (1) 
6

>  <JCHEM_RULE_OF_FIVE>  (1) 
1

>  <ALOGPS_SOLUBILITY>  (1) 
7.23e-03 g/l

>  <JCHEM_TRADITIONAL_IUPAC>  (1) 
bromperidol

>  <JCHEM_VEBER_RULE>  (1) 
0

>  <DRUGBANK_ID>  (1) 
DB12401

>  <DRUG_GROUPS>  (1) 
approved; withdrawn

>  <GENERIC_NAME>  (1) 
Bromperidol

>  <SYNONYMS>  (1) 
Bromperidol

$$$$
