1205
     RDKit          2D

 22 24  0  0  0  0  0  0  0  0999 V2000
    1.6500    0.4818    0.0000 F   0  0  0  0  0  0  0  0  0  0  0  0
    4.0454    1.9376    0.0000 O   0  0  0  0  0  0  0  0  0  0  0  0
    7.4456   -1.3934    0.0000 O   0  0  0  0  0  0  0  0  0  0  0  0
    7.2562    0.0229    0.0000 O   0  0  0  0  0  0  0  0  0  0  0  0
    4.8158   -0.6130    0.0000 N   0  0  0  0  0  0  0  0  0  0  0  0
    5.2283    1.1943    0.0000 N   0  0  0  0  0  0  0  0  0  0  0  0
    5.7351   -1.5711    0.0000 N   0  0  0  0  0  0  0  0  0  0  0  0
    5.5592   -0.2550    0.0000 C   0  0  0  0  0  0  0  0  0  0  0  0
    5.7427    0.5493    0.0000 C   0  0  0  0  0  0  0  0  0  0  0  0
    4.0726   -0.2550    0.0000 C   0  0  0  0  0  0  0  0  0  0  0  0
    3.8889    0.5493    0.0000 C   0  0  0  0  0  0  0  0  0  0  0  0
    6.1244   -0.8493    0.0000 C   0  0  0  0  0  0  0  0  0  0  0  0
    4.4033    1.1943    0.0000 C   0  0  0  0  0  0  0  0  0  0  0  0
    4.9280   -1.4253    0.0000 C   0  0  0  0  0  0  0  0  0  0  0  0
    3.4517   -0.8492    0.0000 C   0  0  0  0  0  0  0  0  0  0  0  0
    5.5863    1.9376    0.0000 C   0  0  0  0  0  0  0  0  0  0  0  0
    3.0718    0.8153    0.0000 C   0  0  0  0  0  0  0  0  0  0  0  0
    2.6286   -0.6022    0.0000 C   0  0  0  0  0  0  0  0  0  0  0  0
    6.9421   -0.7399    0.0000 C   0  0  0  0  0  0  0  0  0  0  0  0
    2.4374    0.2356    0.0000 C   0  0  0  0  0  0  0  0  0  0  0  0
    8.2633   -1.2841    0.0000 C   0  0  0  0  0  0  0  0  0  0  0  0
    8.7669   -1.9376    0.0000 C   0  0  0  0  0  0  0  0  0  0  0  0
  1 20  1  0
  2 13  2  0
  3 19  1  0
  3 21  1  0
  4 19  2  0
  5  8  1  0
  5 10  1  0
  5 14  1  0
  6  9  1  0
  6 13  1  0
  6 16  1  0
  7 12  1  0
  7 14  2  0
  8  9  1  0
  8 12  2  0
 10 11  2  0
 10 15  1  0
 11 13  1  0
 11 17  1  0
 12 19  1  0
 15 18  2  0
 17 20  2  0
 18 20  1  0
 21 22  1  0
M  END
>  <DATABASE_ID>  (1) 
DB01205

>  <DATABASE_NAME>  (1) 
drugbank

>  <SMILES>  (1) 
CCOC(=O)C1=C2CN(C)C(=O)C3=C(C=CC(F)=C3)N2C=N1

>  <INCHI_IDENTIFIER>  (1) 
InChI=1S/C15H14FN3O3/c1-3-22-15(21)13-12-7-18(2)14(20)10-6-9(16)4-5-11(10)19(12)8-17-13/h4-6,8H,3,7H2,1-2H3

>  <INCHI_KEY>  (1) 
OFBIFZUFASYYRE-UHFFFAOYSA-N

>  <FORMULA>  (1) 
C15H14FN3O3

>  <MOLECULAR_WEIGHT>  (1) 
303.2884

>  <EXACT_MASS>  (1) 
303.101919534

>  <JCHEM_ACCEPTOR_COUNT>  (1) 
3

>  <JCHEM_ATOM_COUNT>  (1) 
36

>  <JCHEM_AVERAGE_NEUTRAL_MICROSPECIES_CHARGE>  (1) 
7.36325118216207e-05

>  <JCHEM_AVERAGE_POLARIZABILITY>  (1) 
29.838049541272497

>  <JCHEM_BIOAVAILABILITY>  (1) 
1

>  <JCHEM_DONOR_COUNT>  (1) 
0

>  <JCHEM_FORMAL_CHARGE>  (1) 
0

>  <JCHEM_GHOSE_FILTER>  (1) 
1

>  <JCHEM_IUPAC>  (1) 
ethyl 12-fluoro-8-methyl-9-oxo-2,4,8-triazatricyclo[8.4.0.0^{2,6}]tetradeca-1(10),3,5,11,13-pentaene-5-carboxylate

>  <ALOGPS_LOGP>  (1) 
1.54

>  <JCHEM_LOGP>  (1) 
1.3944683386666672

>  <ALOGPS_LOGS>  (1) 
-2.46

>  <JCHEM_MDDR_LIKE_RULE>  (1) 
0

>  <JCHEM_NEUTRAL_CHARGE>  (1) 
0

>  <JCHEM_NUMBER_OF_RINGS>  (1) 
3

>  <JCHEM_PHYSIOLOGICAL_CHARGE>  (1) 
0

>  <JCHEM_PKA_STRONGEST_BASIC>  (1) 
2.8671052284998813

>  <JCHEM_POLAR_SURFACE_AREA>  (1) 
64.43

>  <JCHEM_REFRACTIVITY>  (1) 
87.92859999999999

>  <JCHEM_ROTATABLE_BOND_COUNT>  (1) 
3

>  <JCHEM_RULE_OF_FIVE>  (1) 
1

>  <ALOGPS_SOLUBILITY>  (1) 
1.04e+00 g/l

>  <JCHEM_TRADITIONAL_IUPAC>  (1) 
biotin

>  <JCHEM_VEBER_RULE>  (1) 
0

>  <DRUGBANK_ID>  (1) 
DB01205

>  <SECONDARY_ACCESSION_NUMBERS>  (1) 
APRD00974

>  <DRUG_GROUPS>  (1) 
approved; investigational

>  <GENERIC_NAME>  (1) 
Flumazenil

>  <SYNONYMS>  (1) 
Flumazenil; Flumazenilo; Flumazenilum; Flumazepil

>  <PRODUCTS>  (1) 
Anexate Inj 0.1mg/ml; Flumazenil; Flumazenil Injection; Flumazenil Injection Sdz; Flumazenil Injection, USP; Jamp-flumazenil; Romazicon

>  <INTERNATIONAL_BRANDS>  (1) 
Anexate; Lanexat; Mazicon

$$$$
