
     RDKit          2D

  2  0  0  0  0  0  0  0  0  0999 V2000
    0.8250    0.0000    0.0000 O   0  0  0  0  0  0  0  0  0  0  0  0
    0.0000    0.0000    0.0000 Cu  0  0  0  0  0 15  0  0  0  0  0  0
M  CHG  2   1  -2   2   2
M  END
>  <DATABASE_ID>  (1) 
DB11134

>  <DATABASE_NAME>  (1) 
drugbank

>  <SMILES>  (1) 
[O--].[Cu++]

>  <INCHI_IDENTIFIER>  (1) 
InChI=1S/Cu.O/q+2;-2

>  <INCHI_KEY>  (1) 
KKCXRELNMOYFLS-UHFFFAOYSA-N

>  <FORMULA>  (1) 
CuO

>  <MOLECULAR_WEIGHT>  (1) 
79.545

>  <EXACT_MASS>  (1) 
78.924513

>  <JCHEM_ACCEPTOR_COUNT>  (1) 
1

>  <JCHEM_ATOM_COUNT>  (1) 
2

>  <JCHEM_AVERAGE_POLARIZABILITY>  (1) 
0.9475908

>  <JCHEM_BIOAVAILABILITY>  (1) 
1

>  <JCHEM_DONOR_COUNT>  (1) 
0

>  <JCHEM_FORMAL_CHARGE>  (1) 
0

>  <JCHEM_GHOSE_FILTER>  (1) 
0

>  <JCHEM_IUPAC>  (1) 
copper(2+) ion oxidandiide

>  <ALOGPS_LOGP>  (1) 
-1.30

>  <JCHEM_LOGP>  (1) 
-0.6519999999999999

>  <ALOGPS_LOGS>  (1) 
0.53

>  <JCHEM_MDDR_LIKE_RULE>  (1) 
0

>  <JCHEM_NUMBER_OF_RINGS>  (1) 
0

>  <JCHEM_PHYSIOLOGICAL_CHARGE>  (1) 
0

>  <JCHEM_PKA_STRONGEST_ACIDIC>  (1) 
15.7

>  <JCHEM_PKA_STRONGEST_BASIC>  (1) 
-1.7999999999999998

>  <JCHEM_POLAR_SURFACE_AREA>  (1) 
0.0

>  <JCHEM_REFRACTIVITY>  (1) 
13.1149

>  <JCHEM_ROTATABLE_BOND_COUNT>  (1) 
0

>  <JCHEM_RULE_OF_FIVE>  (1) 
1

>  <ALOGPS_SOLUBILITY>  (1) 
2.70e+02 g/l

>  <JCHEM_TRADITIONAL_IUPAC>  (1) 
copper(2+) ion oxidandiide

>  <JCHEM_VEBER_RULE>  (1) 
1

>  <DRUGBANK_ID>  (1) 
DB11134

>  <DRUG_GROUPS>  (1) 
approved

>  <GENERIC_NAME>  (1) 
Cupric oxide

>  <SYNONYMS>  (1) 
Cuprous Oxide; Cuprum oxydatum nigrum

>  <PRODUCTS>  (1) 
Active FE; Avon Vitadvance Multi-kids Complete; Bacmin; Bal-Care DHA; Bal-Care DHA Essential; Balance Ace - Cap; Calcium Plus; Cavan Alpha; Cavan Folate DHA; Cavan Folate OB; Cell-wise Natural Source; Central-vite 18 Essential; Century Complete; Chewable Adult Multivitamins With Minerals; Chewable Children's Complete Multivitamins With Essential Minerals; Children's Chewable Multivitamin Complete With Minerals; Children's Chewable Multivitamin and Multimineral; Children's Chewable Multivitamins With Minerals; CitraNatal 90 DHA; CitraNatal DHA; CitraNatal Rx; Complete Multivitamins and Minerals for Children; Complete Natal DHA; Complete-RF Prenatal; Coppermagic Pain Relief Balm; Duet DHA; Duet DHA 400; Duet DHA 400 ec; Duet DHA Balanced; DuetDHA Balanced; DuetDHA Complete; Escavite D; Eye Health Areds 2 Formula; FeRiva FA; FeRivaFA; Finazol; Floriva; Focalgin 90 DHA; Focalgin CA; FolaGent DHA; FolaMed DHA; Foliflex; Folitin-Z; Foltabs Prenatal; Foltabs Prenatal Plus DHA; I-care Multivitamin and Multimineral Tablets; INATAL Ultra; Inatal Advance; Iron Polysaccharides Folic Acid DHA; Marnatal F; Materna; Materna - Tab; Materna-tab; Megavite Rx; Multi-Nate 30; Multinate DHA; Multinate DHA Extra; Multiple Vitamins and Minerals; Multivitamin and Mineral; Multivitamines Et Mineraux Reguliers / Regular Multivitamins and Minerals; Multivitamins and Minerals - Complete; Multivitamins and Multiminerals Formula Regular Tablet; NEONATAL Complete; Natal-V RX Multi-vitamin/Multi-mineral; Natalvirt 90dha; Natalvirt Ca; Neonatal DHA; Niaacinamide Azelaic AC TURMER FA B6 Zinc Ox Copper; NicAzel Doxy Kit; NicAzelFORTE; Nicaprin; Nicomide; Nicotinamide Zcf; Niva-Plus; Ocuvite Tab; Ocuvite Vitamin and Mineral Supplement; Ocuvite Vitamin and Mineral Supplement Capsules; Onccor; One Tablet Daily Mens Formula; Optivite Vitamin and Mineral Supplement Tablet; PNV 27-Ca/Fe/FA; PNV Prenatal Plus Multivitamin; PNV Tabs 29-1; PNV-First; PNV-Select; PR Natal 400; PR Natal 400 ec; PR Natal 430; PR Natal 430 ec; Paramettes Adults; Pnv Ob DHA; Pnv-OB-dha; Polymine Avec Zinc Et Cuivre; PreGen DHA; PrePLUS; PreQue 10; Pregvit; Pregvit Folic 4; Pregvit Folic 5; Prenatal Plus; Prenatal Plus Iron; Prenatal Plus Multivitamin Plus DHA MiniCaps; Prenatal Plus Vitamins; Prenatal Supplement - Tab; Prenatal Vitamin and Mineral Supplement -tab; Prenatal Vitamins Plus Low Iron; Prenatal Vitamins and Minerals Tablets; Prenatal and Post Partum Supplement; Prenate Elite; Prenate Star; Prenatvite Complete; Prenatvite Plus; Preplus; RE Nata OB; RayaVit; Re Ob 90 DHA; Renate; Renate DHA; Ribotin-E; Se-Care Chewable; Se-Care Conceive; Se-Natal; Se-Natal One; SetonET; SetonET-EC; Stress Complex 600 Avec Vit E Cuivre Zinc; Stresstabs + Zinc-copper; Super Kids Chewable Multivitamin Multimineral (chewable Tablets); Supravite Stress Avec Vit E Cuivre Et Zinc; TL-Folate; Tendera-OB; Thrivite Rx; Tri-Zel; TriAdvance; Trinatal GT; Trinatal Rx 1; Trinatal Ultra; Triveen-Duo DHA; VIL-Rx; Vena-Bal DHA; Vinacal; Vinate AZ; Vinate Care; Virt Nate; Virt Vite GT; Virt-Advance; Virt-Bal DHA Plus; Virt-Nate; Virt-PN; Virt-Pn; Virt-Tabs; VitaPhil Aide; Vitafol Fe Plus; Vitafol Ultra; Vitamin and Mineral Supplement Capsules; Vitaphil 90 DHA; Vitaphil DHA; Vol-Nate; Vol-Plus; Vol-Tab Rx; Vp-zel; WesNatal DHA Complete; WesTab Plus; Zintrexyl-C

$$$$
