
     RDKit          2D

 33 35  0  0  1  0  0  0  0  0999 V2000
   -2.8739   -3.4858    0.0000 C   0  0  0  0  0  0  0  0  0  0  0  0
   -2.0535   -3.5721    0.0000 O   0  0  0  0  0  0  0  0  0  0  0  0
   -1.7179   -4.3257    0.0000 C   0  0  0  0  0  0  0  0  0  0  0  0
   -2.2028   -4.9932    0.0000 C   0  0  0  0  0  0  0  0  0  0  0  0
   -3.0233   -4.9070    0.0000 F   0  0  0  0  0  0  0  0  0  0  0  0
   -1.8673   -5.7469    0.0000 C   0  0  0  0  0  0  0  0  0  0  0  0
   -2.3522   -6.4143    0.0000 F   0  0  0  0  0  0  0  0  0  0  0  0
   -1.0468   -5.8331    0.0000 C   0  0  0  0  0  0  0  0  0  0  0  0
   -0.5619   -5.1657    0.0000 C   0  0  0  0  0  0  0  0  0  0  0  0
   -0.8974   -4.4120    0.0000 C   0  0  0  0  0  0  0  0  0  0  0  0
   -0.4125   -3.7445    0.0000 C   0  0  0  0  0  0  0  0  0  0  0  0
   -0.6674   -2.9599    0.0000 C   0  0  0  0  0  0  0  0  0  0  0  0
   -1.4521   -2.7050    0.0000 C   0  0  0  0  0  0  0  0  0  0  0  0
    0.0000   -2.4750    0.0000 C   0  0  0  0  0  0  0  0  0  0  0  0
   -0.5520   -1.8619    0.0000 C   0  0  0  0  0  0  0  0  0  0  0  0
    0.6674   -2.9599    0.0000 O   0  0  0  0  0  0  0  0  0  0  0  0
    0.4125   -3.7445    0.0000 C   0  0  0  0  0  0  0  0  0  0  0  0
    0.8974   -4.4120    0.0000 C   0  0  0  0  0  0  0  0  0  0  0  0
    1.7179   -4.3257    0.0000 O   0  0  0  0  0  0  0  0  0  0  0  0
    0.5619   -5.1657    0.0000 N   0  0  0  0  0  0  0  0  0  0  0  0
    1.0468   -5.8331    0.0000 C   0  0  0  0  0  0  0  0  0  0  0  0
    1.8673   -5.7469    0.0000 C   0  0  0  0  0  0  0  0  0  0  0  0
    2.3522   -6.4143    0.0000 C   0  0  0  0  0  0  0  0  0  0  0  0
    2.0166   -7.1680    0.0000 N   0  0  0  0  0  0  0  0  0  0  0  0
    1.1962   -7.2542    0.0000 C   0  0  0  0  0  0  0  0  0  0  0  0
    0.7112   -6.5868    0.0000 C   0  0  0  0  0  0  0  0  0  0  0  0
    0.8606   -8.0079    0.0000 C   0  0  0  0  0  0  0  0  0  0  0  0
    1.3455   -8.6753    0.0000 N   0  0  0  0  0  0  0  0  0  0  0  0
    0.0401   -8.0941    0.0000 O   0  0  0  0  0  0  0  0  0  0  0  0
    0.5520   -1.8619    0.0000 C   0  0  0  0  0  0  0  0  0  0  0  0
    1.1041   -1.2488    0.0000 F   0  0  0  0  0  0  0  0  0  0  0  0
    1.1651   -2.4139    0.0000 F   0  0  0  0  0  0  0  0  0  0  0  0
   -0.0611   -1.3099    0.0000 F   0  0  0  0  0  0  0  0  0  0  0  0
  1  2  1  0
  2  3  1  0
  3  4  2  0
  4  5  1  0
  4  6  1  0
  6  7  1  0
  6  8  2  0
  8  9  1  0
  9 10  2  0
  3 10  1  0
 11 10  1  6
 11 12  1  0
 12 13  1  6
 12 14  1  0
 14 15  1  1
 14 16  1  0
 17 16  1  0
 11 17  1  0
 17 18  1  1
 18 19  2  0
 18 20  1  0
 20 21  1  0
 21 22  2  0
 22 23  1  0
 23 24  2  0
 24 25  1  0
 25 26  2  0
 21 26  1  0
 25 27  1  0
 27 28  1  0
 27 29  2  0
 14 30  1  0
 30 31  1  0
 30 32  1  0
 30 33  1  0
M  END
>  <DATABASE_ID>  (1) 
DB18927

>  <DATABASE_NAME>  (1) 
drugbank

>  <SMILES>  (1) 
COC1=C(F)C(F)=CC=C1[C@@H]1[C@H](C)[C@@](C)(O[C@H]1C(=O)NC1=CC=NC(=C1)C(N)=O)C(F)(F)F

>  <INCHI_IDENTIFIER>  (1) 
InChI=1S/C21H20F5N3O4/c1-9-14(11-4-5-12(22)15(23)16(11)32-3)17(33-20(9,2)21(24,25)26)19(31)29-10-6-7-28-13(8-10)18(27)30/h4-9,14,17H,1-3H3,(H2,27,30)(H,28,29,31)/t9-,14-,17-,20-/m0/s1

>  <INCHI_KEY>  (1) 
XSQUJFKRXZMOKA-PAFIKIDNSA-N

>  <FORMULA>  (1) 
C21H20F5N3O4

>  <MOLECULAR_WEIGHT>  (1) 
473.4

>  <EXACT_MASS>  (1) 
473.137396951

>  <DRUGBANK_ID>  (1) 
DB18927

>  <DRUG_GROUPS>  (1) 
approved; investigational

>  <GENERIC_NAME>  (1) 
Suzetrigine

>  <SYNONYMS>  (1) 
2-Pyridinecarboxamide, 4-[[[(2R,3S,4S,5R)-3-(3,4-difluoro-2-methoxyphenyl)tetrahydro-4,5-dimethyl-5-(trifluoromethyl)-2-furanyl]carbonyl]amino]-; 4-[(2R,3S,4S,5R)-3-(3,4-difluoro-2-methoxyphenyl)-4,5- dimethyl-5-(trifluoromethyl)oxolane-2- carboxamido]pyridine-2-carboxamide; 4-[(2R,3S,4S,5R)-3-(3,4-difluoro-2-methoxyphenyl)-4,5-dimethyl-5-(trifluoromethyl)oxolane-2-amido]pyridine2-carboxamide; 4-[[[(2R,3S,4S,5R)-3-(3,4-Difluoro-2-methoxyphenyl)tetrahydro-4,5-dimethyl-5-(trifluoromethyl)-2-furanyl]carbonyl]amino]-2-pyridinecarboxamide

>  <PRODUCTS>  (1) 
Journavx

$$$$
