
     RDKit          2D

 19 20  0  0  0  0  0  0  0  0999 V2000
    8.5736    0.8250    0.0000 C   0  0  0  0  0  0  0  0  0  0  0  0
    7.8591    1.2375    0.0000 C   0  0  0  0  0  0  0  0  0  0  0  0
    8.5736    0.0000    0.0000 C   0  0  0  0  0  0  0  0  0  0  0  0
    7.1447    0.8250    0.0000 C   0  0  0  0  0  0  0  0  0  0  0  0
    7.8591   -0.4125    0.0000 C   0  0  0  0  0  0  0  0  0  0  0  0
    5.7157    0.0000    0.0000 C   0  0  0  0  0  0  0  0  0  0  0  0
    6.4302   -1.2375    0.0000 C   0  0  0  0  0  0  0  0  0  0  0  0
    5.0012   -0.4125    0.0000 C   0  0  0  0  0  0  0  0  0  0  0  0
    5.7157   -1.6500    0.0000 C   0  0  0  0  0  0  0  0  0  0  0  0
    3.5723   -1.2375    0.0000 C   0  0  0  0  0  0  0  0  0  0  0  0
    2.8578   -1.6500    0.0000 C   0  0  0  0  0  0  0  0  0  0  0  0
    7.1447    0.0000    0.0000 C   0  0  0  0  0  0  0  0  0  0  0  0
    6.4302   -0.4125    0.0000 C   0  0  0  0  0  0  0  0  0  0  0  0
    5.0012   -1.2375    0.0000 C   0  0  0  0  0  0  0  0  0  0  0  0
    4.2868   -1.6500    0.0000 C   0  0  0  0  0  0  0  0  0  0  0  0
    2.1434   -1.2375    0.0000 C   0  0  0  0  0  0  0  0  0  0  0  0
    4.2868   -2.4750    0.0000 O   0  0  0  0  0  0  0  0  0  0  0  0
    1.4289   -1.6500    0.0000 O   0  0  0  0  0  0  0  0  0  0  0  0
    2.1434   -0.4125    0.0000 O   0  0  0  0  0  0  0  0  0  0  0  0
  2  1  2  0
  3  1  1  0
  4  2  1  0
  5  3  2  0
  8  6  2  0
  9  7  1  0
 11 10  1  0
 12  4  2  0
 12  5  1  0
 13  6  1  0
 13  7  2  0
 13 12  1  0
 14  8  1  0
 14  9  2  0
 15 10  1  0
 15 14  1  0
 16 11  1  0
 17 15  2  0
 18 16  2  0
 19 16  1  0
M  END
>  <DATABASE_ID>  (1) 
DB08981

>  <DATABASE_NAME>  (1) 
drugbank

>  <SMILES>  (1) 
OC(=O)CCC(=O)C1=CC=C(C=C1)C1=CC=CC=C1

>  <INCHI_IDENTIFIER>  (1) 
InChI=1S/C16H14O3/c17-15(10-11-16(18)19)14-8-6-13(7-9-14)12-4-2-1-3-5-12/h1-9H,10-11H2,(H,18,19)

>  <INCHI_KEY>  (1) 
ZPAKPRAICRBAOD-UHFFFAOYSA-N

>  <FORMULA>  (1) 
C16H14O3

>  <MOLECULAR_WEIGHT>  (1) 
254.2806

>  <EXACT_MASS>  (1) 
254.094294314

>  <JCHEM_ACCEPTOR_COUNT>  (1) 
3

>  <JCHEM_ATOM_COUNT>  (1) 
33

>  <JCHEM_AVERAGE_NEUTRAL_MICROSPECIES_CHARGE>  (1) 
-0.9983445810896996

>  <JCHEM_AVERAGE_POLARIZABILITY>  (1) 
27.470579483696106

>  <JCHEM_BIOAVAILABILITY>  (1) 
1

>  <JCHEM_DONOR_COUNT>  (1) 
1

>  <JCHEM_FORMAL_CHARGE>  (1) 
0

>  <JCHEM_GHOSE_FILTER>  (1) 
1

>  <JCHEM_IUPAC>  (1) 
4-{[1,1'-biphenyl]-4-yl}-4-oxobutanoic acid

>  <ALOGPS_LOGP>  (1) 
3.07

>  <JCHEM_LOGP>  (1) 
3.002981443666666

>  <ALOGPS_LOGS>  (1) 
-4.32

>  <JCHEM_MDDR_LIKE_RULE>  (1) 
0

>  <JCHEM_NEUTRAL_CHARGE>  (1) 
-1

>  <JCHEM_NUMBER_OF_RINGS>  (1) 
2

>  <JCHEM_PHYSIOLOGICAL_CHARGE>  (1) 
-1

>  <JCHEM_PKA>  (1) 
16.874553731758596

>  <JCHEM_PKA_STRONGEST_ACIDIC>  (1) 
4.219627482058849

>  <JCHEM_PKA_STRONGEST_BASIC>  (1) 
-7.454900028981267

>  <JCHEM_POLAR_SURFACE_AREA>  (1) 
54.370000000000005

>  <JCHEM_REFRACTIVITY>  (1) 
72.49029999999999

>  <JCHEM_ROTATABLE_BOND_COUNT>  (1) 
5

>  <JCHEM_RULE_OF_FIVE>  (1) 
1

>  <ALOGPS_SOLUBILITY>  (1) 
1.21e-02 g/l

>  <JCHEM_TRADITIONAL_IUPAC>  (1) 
biotin

>  <JCHEM_VEBER_RULE>  (1) 
0

>  <DRUGBANK_ID>  (1) 
DB08981

>  <DRUG_GROUPS>  (1) 
approved

>  <GENERIC_NAME>  (1) 
Fenbufen

>  <SYNONYMS>  (1) 
3-(4-Biphenylylcarbonyl)propionic acid; 3-(4-Phenylbenzoyl)propionic acid; 4-(4-Biphenylyl)-4-oxobutyric acid; Fenbufén; Fenbufen; Fenbufène; Fenbufenum; gamma-oxo(1,1'-biphenyl)-4-butanoic acid

$$$$
