
     RDKit          2D

 22 24  0  0  0  0  0  0  0  0999 V2000
    0.0000    0.7463    0.0000 C   0  0  0  0  0  0  0  0  0  0  0  0
   -0.7433    1.1043    0.0000 C   0  0  0  0  0  0  0  0  0  0  0  0
    0.7433    1.1043    0.0000 C   0  0  0  0  0  0  0  0  0  0  0  0
   -0.9268    1.9086    0.0000 C   0  0  0  0  0  0  0  0  0  0  0  0
   -1.3480    0.5431    0.0000 C   0  0  0  0  0  0  0  0  0  0  0  0
    0.9269    1.9086    0.0000 C   0  0  0  0  0  0  0  0  0  0  0  0
    1.3481    0.5431    0.0000 C   0  0  0  0  0  0  0  0  0  0  0  0
    0.7145   -0.4911    0.0000 C   0  0  0  0  0  0  0  0  0  0  0  0
   -0.4125    2.5536    0.0000 C   0  0  0  0  0  0  0  0  0  0  0  0
   -1.7152    2.1518    0.0000 C   0  0  0  0  0  0  0  0  0  0  0  0
   -2.1364    0.7863    0.0000 C   0  0  0  0  0  0  0  0  0  0  0  0
    0.4125    2.5536    0.0000 O   0  0  0  0  0  0  0  0  0  0  0  0
    1.7153    2.1518    0.0000 C   0  0  0  0  0  0  0  0  0  0  0  0
    2.1364    0.7863    0.0000 C   0  0  0  0  0  0  0  0  0  0  0  0
    0.7145   -1.3161    0.0000 C   0  0  0  0  0  0  0  0  0  0  0  0
   -2.3200    1.5906    0.0000 C   0  0  0  0  0  0  0  0  0  0  0  0
    2.3200    1.5906    0.0000 C   0  0  0  0  0  0  0  0  0  0  0  0
    1.4290   -1.7286    0.0000 N   0  0  0  0  0  0  0  0  0  0  0  0
    2.1434   -1.3161    0.0000 C   0  0  0  0  0  0  0  0  0  0  0  0
    1.4290   -2.5536    0.0000 C   0  0  0  0  0  0  0  0  0  0  0  0
    0.0000   -0.0786    0.0000 C   0  0  0  0  0  0  0  0  0  0  0  0
   -0.7145   -0.4911    0.0000 H   0  0  0  0  0  0  0  0  0  0  0  0
  1  2  1  0
  1  3  1  0
  1 21  2  3
  2  4  2  0
  2  5  1  0
  3  6  2  0
  3  7  1  0
 21  8  1  0
  4  9  1  0
  4 10  1  0
  5 11  2  0
  6 12  1  0
  6 13  1  0
  7 14  2  0
  8 15  1  0
 10 16  2  0
 13 17  2  0
 15 18  1  0
 18 19  1  0
 18 20  1  0
  9 12  1  0
 11 16  1  0
 14 17  1  0
 21 22  1  0
M  END
>  <DATABASE_ID>  (1) 
DB01142

>  <DATABASE_NAME>  (1) 
drugbank

>  <SMILES>  (1) 
[H]C(CCN(C)C)=C1C2=CC=CC=C2COC2=CC=CC=C12

>  <INCHI_IDENTIFIER>  (1) 
InChI=1S/C19H21NO/c1-20(2)13-7-11-17-16-9-4-3-8-15(16)14-21-19-12-6-5-10-18(17)19/h3-6,8-12H,7,13-14H2,1-2H3

>  <INCHI_KEY>  (1) 
ODQWQRRAPPTVAG-UHFFFAOYSA-N

>  <FORMULA>  (1) 
C19H21NO

>  <MOLECULAR_WEIGHT>  (1) 
279.3761

>  <EXACT_MASS>  (1) 
279.162314299

>  <JCHEM_ACCEPTOR_COUNT>  (1) 
2

>  <JCHEM_ATOM_COUNT>  (1) 
42

>  <JCHEM_AVERAGE_POLARIZABILITY>  (1) 
32.47137124857041

>  <JCHEM_BIOAVAILABILITY>  (1) 
1

>  <JCHEM_DONOR_COUNT>  (1) 
0

>  <JCHEM_FORMAL_CHARGE>  (1) 
0

>  <JCHEM_GHOSE_FILTER>  (1) 
1

>  <JCHEM_IUPAC>  (1) 
dimethyl(3-{9-oxatricyclo[9.4.0.0^{3,8}]pentadeca-1(15),3,5,7,11,13-hexaen-2-ylidene}propyl)amine

>  <ALOGPS_LOGP>  (1) 
4.08

>  <JCHEM_LOGP>  (1) 
3.8399740746666673

>  <ALOGPS_LOGS>  (1) 
-3.94

>  <JCHEM_MDDR_LIKE_RULE>  (1) 
0

>  <JCHEM_NUMBER_OF_RINGS>  (1) 
3

>  <JCHEM_PHYSIOLOGICAL_CHARGE>  (1) 
1

>  <JCHEM_PKA_STRONGEST_BASIC>  (1) 
9.760738298749509

>  <JCHEM_POLAR_SURFACE_AREA>  (1) 
12.47

>  <JCHEM_REFRACTIVITY>  (1) 
98.24480000000003

>  <JCHEM_ROTATABLE_BOND_COUNT>  (1) 
3

>  <JCHEM_RULE_OF_FIVE>  (1) 
1

>  <ALOGPS_SOLUBILITY>  (1) 
3.19e-02 g/l

>  <JCHEM_TRADITIONAL_IUPAC>  (1) 
N-[(3R)-1-[7-(4-hydroxybut-2-yn-1-yl)-3-methyl-1-[(4-methylquinazolin-2-yl)methyl]-2,6-dioxopurin-8-yl]piperidin-3-yl]acetamide

>  <JCHEM_VEBER_RULE>  (1) 
1

>  <DRUGBANK_ID>  (1) 
DB01142

>  <SECONDARY_ACCESSION_NUMBERS>  (1) 
APRD00398

>  <DRUG_GROUPS>  (1) 
approved

>  <GENERIC_NAME>  (1) 
Doxepin

>  <SYNONYMS>  (1) 
Doxepin; Doxepina; Doxepinum

>  <PRODUCTS>  (1) 
Alti-doxepin - Cap 10mg; Alti-doxepin-cap 25mg; Alti-doxepin-cap 50mg; Alti-doxepin-cap 75mg; Doxepin; Doxepin HCL; Doxepin HCl; Doxepin Hydrochloride; Doxepin hydrochloride; Doxepine-10 - Cap; Doxepine-100 - Cap; Doxepine-150 - Cap; Doxepine-25 -cap; Doxepine-50 - Cap; Doxepine-75 - Cap; Jamp Doxepin; Mar-doxepin; Novo-doxepin; Ntp-doxepin; Prudoxin; Rho-doxepin - Cap 25mg; Rho-doxepin - Cap 50mg; Rho-doxepin-10 Mg Cap; Silenor; Sinequan; Sinequan Cap 150mg; Triadapin Cap 100mg; Triadapin Cap 10mg; Triadapin Cap 25mg; Triadapin Cap 50mg; Triadapin Cap 75mg; Zonalon; Zonalon Cream 5%

>  <INTERNATIONAL_BRANDS>  (1) 
Adapin; Aponal; Doxepine; Quitaxon

>  <SALTS>  (1) 
Doxepin hydrochloride

$$$$
