1399
     RDKit          2D

 19 20  0  0  0  0  0  0  0  0999 V2000
    4.5079   -0.0495    0.0000 O   0  0  0  0  0  0  0  0  0  0  0  0
    3.7934    1.1880    0.0000 O   0  0  0  0  0  0  0  0  0  0  0  0
    3.7934   -1.2870    0.0000 O   0  0  0  0  0  0  0  0  0  0  0  0
    6.6513    1.1880    0.0000 O   0  0  0  0  0  0  0  0  0  0  0  0
    5.2223    1.1880    0.0000 O   0  0  0  0  0  0  0  0  0  0  0  0
    5.2223   -0.4620    0.0000 C   0  0  0  0  0  0  0  0  0  0  0  0
    3.0790   -0.0495    0.0000 C   0  0  0  0  0  0  0  0  0  0  0  0
    5.9369   -0.0495    0.0000 C   0  0  0  0  0  0  0  0  0  0  0  0
    3.0790    0.7755    0.0000 C   0  0  0  0  0  0  0  0  0  0  0  0
    5.2223   -1.2870    0.0000 C   0  0  0  0  0  0  0  0  0  0  0  0
    3.7934   -0.4620    0.0000 C   0  0  0  0  0  0  0  0  0  0  0  0
    6.6513   -0.4620    0.0000 C   0  0  0  0  0  0  0  0  0  0  0  0
    2.3644   -0.4620    0.0000 C   0  0  0  0  0  0  0  0  0  0  0  0
    5.9369   -1.6995    0.0000 C   0  0  0  0  0  0  0  0  0  0  0  0
    6.6513   -1.2870    0.0000 C   0  0  0  0  0  0  0  0  0  0  0  0
    2.3644    1.1880    0.0000 C   0  0  0  0  0  0  0  0  0  0  0  0
    1.6500   -0.0495    0.0000 C   0  0  0  0  0  0  0  0  0  0  0  0
    1.6500    0.7755    0.0000 C   0  0  0  0  0  0  0  0  0  0  0  0
    5.9369    0.7755    0.0000 C   0  0  0  0  0  0  0  0  0  0  0  0
  1  6  1  0
  1 11  1  0
  2  9  1  0
  3 11  2  0
  4 19  1  0
  5 19  2  0
  6  8  2  0
  6 10  1  0
  7  9  2  0
  7 11  1  0
  7 13  1  0
  8 12  1  0
  8 19  1  0
  9 16  1  0
 10 14  2  0
 12 15  2  0
 13 17  2  0
 14 15  1  0
 16 18  2  0
 17 18  1  0
M  END
>  <DATABASE_ID>  (1) 
DB01399

>  <DATABASE_NAME>  (1) 
drugbank

>  <SMILES>  (1) 
OC(=O)C1=CC=CC=C1OC(=O)C1=CC=CC=C1O

>  <INCHI_IDENTIFIER>  (1) 
InChI=1S/C14H10O5/c15-11-7-3-1-5-9(11)14(18)19-12-8-4-2-6-10(12)13(16)17/h1-8,15H,(H,16,17)

>  <INCHI_KEY>  (1) 
WVYADZUPLLSGPU-UHFFFAOYSA-N

>  <FORMULA>  (1) 
C14H10O5

>  <MOLECULAR_WEIGHT>  (1) 
258.2262

>  <EXACT_MASS>  (1) 
258.05282343

>  <JCHEM_ACCEPTOR_COUNT>  (1) 
4

>  <JCHEM_ATOM_COUNT>  (1) 
29

>  <JCHEM_AVERAGE_NEUTRAL_MICROSPECIES_CHARGE>  (1) 
-1.0018889157155657

>  <JCHEM_AVERAGE_POLARIZABILITY>  (1) 
24.925150334179193

>  <JCHEM_BIOAVAILABILITY>  (1) 
1

>  <JCHEM_DONOR_COUNT>  (1) 
2

>  <JCHEM_FORMAL_CHARGE>  (1) 
0

>  <JCHEM_GHOSE_FILTER>  (1) 
1

>  <JCHEM_IUPAC>  (1) 
2-(2-hydroxybenzoyloxy)benzoic acid

>  <ALOGPS_LOGP>  (1) 
3.44

>  <JCHEM_LOGP>  (1) 
3.6386988149999993

>  <ALOGPS_LOGS>  (1) 
-3.02

>  <JCHEM_MDDR_LIKE_RULE>  (1) 
0

>  <JCHEM_NEUTRAL_CHARGE>  (1) 
-1

>  <JCHEM_NUMBER_OF_RINGS>  (1) 
2

>  <JCHEM_PHYSIOLOGICAL_CHARGE>  (1) 
-1

>  <JCHEM_PKA>  (1) 
9.668257147887239

>  <JCHEM_PKA_STRONGEST_ACIDIC>  (1) 
3.4033106020174717

>  <JCHEM_PKA_STRONGEST_BASIC>  (1) 
-4.291296693421991

>  <JCHEM_POLAR_SURFACE_AREA>  (1) 
83.83000000000001

>  <JCHEM_REFRACTIVITY>  (1) 
67.09800000000001

>  <JCHEM_ROTATABLE_BOND_COUNT>  (1) 
4

>  <JCHEM_RULE_OF_FIVE>  (1) 
1

>  <ALOGPS_SOLUBILITY>  (1) 
2.46e-01 g/l

>  <JCHEM_TRADITIONAL_IUPAC>  (1) 
biotin

>  <JCHEM_VEBER_RULE>  (1) 
0

>  <DRUGBANK_ID>  (1) 
DB01399

>  <DRUG_GROUPS>  (1) 
approved; investigational

>  <GENERIC_NAME>  (1) 
Salsalate

>  <SYNONYMS>  (1) 
2-Carboxyphenyl salicylate; Disalicylic acid; Disalicylsäure; O-Salicylcylsalicylsäure; o-Salicylsalicylic acid; Salicylic acid bimolecular ester; Salicyloxysalicylic acid; Salicyloylsalicylic acid; Salicylsalicylic acid; Salsalate; Salsalato; Salsalatum; Sasapyrin; Sasapyrine; Sasapyrinum

>  <PRODUCTS>  (1) 
Disalcid; Disalcid - Tab 500mg; Disalcid - Tab 750mg; Disalcid Tab 500mg; Disalcid Tab 750mg; Salsalate; Salsalate Rx

$$$$
