
     RDKit          2D

 12 12  0  0  0  0  0  0  0  0999 V2000
   -0.0223    0.3785    0.0000 C   0  0  0  0  0  0  0  0  0  0  0  0
   -0.7368   -0.0339    0.0000 C   0  0  0  0  0  0  0  0  0  0  0  0
   -0.7368   -0.8590    0.0000 C   0  0  0  0  0  0  0  0  0  0  0  0
   -0.0223   -1.2715    0.0000 C   0  0  0  0  0  0  0  0  0  0  0  0
    0.6922   -0.8590    0.0000 C   0  0  0  0  0  0  0  0  0  0  0  0
    0.6922   -0.0339    0.0000 C   0  0  0  0  0  0  0  0  0  0  0  0
   -1.4513   -1.2715    0.0000 C   0  0  0  0  0  0  0  0  0  0  0  0
   -2.1659   -0.8590    0.0000 N   0  0  0  0  0  0  0  0  0  0  0  0
    1.4067    0.3785    0.0000 S   0  0  0  0  0  0  0  0  0  0  0  0
    2.0543    1.1268    0.0000 O   0  0  0  0  0  0  0  0  0  0  0  0
    1.0271    1.1813    0.0000 O   0  0  0  0  0  0  0  0  0  0  0  0
    1.9321   -0.2574    0.0000 N   0  0  0  0  0  0  0  0  0  0  0  0
  1  2  2  0
  1  6  1  0
  2  3  1  0
  3  4  2  0
  4  5  1  0
  5  6  2  0
  3  7  1  0
  7  8  1  0
  6  9  1  0
  9 10  2  0
 11  9  2  0
  9 12  1  0
M  END
>  <DATABASE_ID>  (1) 
DB06795

>  <DATABASE_NAME>  (1) 
drugbank

>  <SMILES>  (1) 
NCC1=CC=C(C=C1)S(N)(=O)=O

>  <INCHI_IDENTIFIER>  (1) 
InChI=1S/C7H10N2O2S/c8-5-6-1-3-7(4-2-6)12(9,10)11/h1-4H,5,8H2,(H2,9,10,11)

>  <INCHI_KEY>  (1) 
TYMRLRRVMHJFTF-UHFFFAOYSA-N

>  <FORMULA>  (1) 
C7H10N2O2S

>  <MOLECULAR_WEIGHT>  (1) 
186.232

>  <EXACT_MASS>  (1) 
186.046298264

>  <JCHEM_ACCEPTOR_COUNT>  (1) 
3

>  <JCHEM_ATOM_COUNT>  (1) 
22

>  <JCHEM_AVERAGE_NEUTRAL_MICROSPECIES_CHARGE>  (1) 
0.9904486529181249

>  <JCHEM_AVERAGE_POLARIZABILITY>  (1) 
18.238978012741548

>  <JCHEM_BIOAVAILABILITY>  (1) 
1

>  <JCHEM_DONOR_COUNT>  (1) 
2

>  <JCHEM_FORMAL_CHARGE>  (1) 
0

>  <JCHEM_GHOSE_FILTER>  (1) 
0

>  <JCHEM_IUPAC>  (1) 
4-(aminomethyl)benzene-1-sulfonamide

>  <ALOGPS_LOGP>  (1) 
-0.37

>  <JCHEM_LOGP>  (1) 
-0.5174302431445267

>  <ALOGPS_LOGS>  (1) 
-1.56

>  <JCHEM_MDDR_LIKE_RULE>  (1) 
0

>  <JCHEM_NEUTRAL_CHARGE>  (1) 
1

>  <JCHEM_NUMBER_OF_RINGS>  (1) 
1

>  <JCHEM_PHYSIOLOGICAL_CHARGE>  (1) 
1

>  <JCHEM_PKA_STRONGEST_ACIDIC>  (1) 
10.249408572924686

>  <JCHEM_PKA_STRONGEST_BASIC>  (1) 
9.04448489293488

>  <JCHEM_POLAR_SURFACE_AREA>  (1) 
86.18

>  <JCHEM_REFRACTIVITY>  (1) 
46.6893

>  <JCHEM_ROTATABLE_BOND_COUNT>  (1) 
2

>  <JCHEM_RULE_OF_FIVE>  (1) 
1

>  <ALOGPS_SOLUBILITY>  (1) 
5.18e+00 g/l

>  <JCHEM_TRADITIONAL_IUPAC>  (1) 
biotin

>  <JCHEM_VEBER_RULE>  (1) 
0

>  <DRUGBANK_ID>  (1) 
DB06795

>  <DRUG_GROUPS>  (1) 
approved; vet_approved; withdrawn

>  <GENERIC_NAME>  (1) 
Mafenide

>  <SYNONYMS>  (1) 
4-(aminomethyl)benzenesulfonamide; 4-Homosufanilamide; Bensulfamide; Mafenide; Maphenidum

>  <PRODUCTS>  (1) 
Mafenide Acetate; Mafenide acetate; Sulfamylon; Sulfamylon Cream - 8.5%

>  <SALTS>  (1) 
Mafenide Acetate

$$$$
