
     RDKit          2D

 21 23  0  0  1  0  0  0  0  0999 V2000
    0.4210    3.7125    0.0000 C   0  0  0  0  0  0  0  0  0  0  0  0
    1.1355    3.3000    0.0000 C   0  0  0  0  0  0  0  0  0  0  0  0
    1.8500    3.7125    0.0000 C   0  0  0  0  0  0  0  0  0  0  0  0
    2.5645    3.3000    0.0000 C   0  0  0  0  0  0  0  0  0  0  0  0
    2.5645    2.4750    0.0000 C   0  0  0  0  0  0  0  0  0  0  0  0
    1.8500    2.0625    0.0000 C   0  0  0  0  0  0  0  0  0  0  0  0
    1.1355    2.4750    0.0000 N   0  0  0  0  0  0  0  0  0  0  0  0
    0.4210    2.0625    0.0000 C   0  0  0  0  0  0  0  0  0  0  0  0
    0.4210    1.2375    0.0000 O   0  0  0  0  0  0  0  0  0  0  0  0
   -0.2934    2.4750    0.0000 C   0  0  0  0  0  0  0  0  0  0  0  0
   -1.0079    2.0625    0.0000 C   0  0  0  0  0  0  0  0  0  0  0  0
    3.2789    2.0625    0.0000 N   0  0  0  0  0  0  0  0  0  0  0  0
    3.2789    1.2375    0.0000 C   0  0  0  0  0  0  0  0  0  0  0  0
    3.9934    0.8250    0.0000 N   0  0  0  0  0  0  0  0  0  0  0  0
    3.9934    0.0000    0.0000 C   0  0  0  0  0  0  0  0  0  0  0  0
    3.2789   -0.4125    0.0000 N   0  0  0  0  0  0  0  0  0  0  0  0
    2.5645    0.0000    0.0000 C   0  0  0  0  0  0  0  0  0  0  0  0
    2.5645    0.8250    0.0000 C   0  0  0  0  0  0  0  0  0  0  0  0
    1.7798    1.0799    0.0000 C   0  0  0  0  0  0  0  0  0  0  0  0
    1.2949    0.4125    0.0000 C   0  0  0  0  0  0  0  0  0  0  0  0
    1.7798   -0.2549    0.0000 N   0  0  0  0  0  0  0  0  0  0  0  0
  2  1  1  1
  2  3  1  0
  3  4  1  0
  5  4  1  0
  5  6  1  0
  6  7  1  0
  2  7  1  0
  7  8  1  0
  8  9  2  0
  8 10  1  0
 10 11  2  0
  5 12  1  1
 12 13  1  0
 13 14  2  0
 14 15  1  0
 15 16  2  0
 16 17  1  0
 17 18  2  0
 13 18  1  0
 18 19  1  0
 19 20  2  0
 20 21  1  0
 17 21  1  0
M  END
>  <DATABASE_ID>  (1) 
DB14924

>  <DATABASE_NAME>  (1) 
drugbank

>  <SMILES>  (1) 
C[C@H]1CC[C@H](CN1C(=O)C=C)NC1=NC=NC2=C1C=CN2

>  <INCHI_IDENTIFIER>  (1) 
InChI=1S/C15H19N5O/c1-3-13(21)20-8-11(5-4-10(20)2)19-15-12-6-7-16-14(12)17-9-18-15/h3,6-7,9-11H,1,4-5,8H2,2H3,(H2,16,17,18,19)/t10-,11+/m0/s1

>  <INCHI_KEY>  (1) 
CBRJPFGIXUFMTM-WDEREUQCSA-N

>  <FORMULA>  (1) 
C15H19N5O

>  <MOLECULAR_WEIGHT>  (1) 
285.351

>  <EXACT_MASS>  (1) 
285.158960252

>  <JCHEM_ACCEPTOR_COUNT>  (1) 
4

>  <JCHEM_ATOM_COUNT>  (1) 
40

>  <JCHEM_AVERAGE_POLARIZABILITY>  (1) 
29.9548391432101

>  <JCHEM_BIOAVAILABILITY>  (1) 
1

>  <JCHEM_DONOR_COUNT>  (1) 
2

>  <JCHEM_FORMAL_CHARGE>  (1) 
0

>  <JCHEM_GHOSE_FILTER>  (1) 
1

>  <JCHEM_IUPAC>  (1) 
1-[(2S,5R)-2-methyl-5-({7H-pyrrolo[2,3-d]pyrimidin-4-yl}amino)piperidin-1-yl]prop-2-en-1-one

>  <ALOGPS_LOGP>  (1) 
1.80

>  <JCHEM_LOGP>  (1) 
1.4671665896666661

>  <ALOGPS_LOGS>  (1) 
-2.80

>  <JCHEM_MDDR_LIKE_RULE>  (1) 
0

>  <JCHEM_NUMBER_OF_RINGS>  (1) 
3

>  <JCHEM_PHYSIOLOGICAL_CHARGE>  (1) 
1

>  <JCHEM_PKA>  (1) 
19.941522115121337

>  <JCHEM_PKA_STRONGEST_ACIDIC>  (1) 
13.589488740920235

>  <JCHEM_PKA_STRONGEST_BASIC>  (1) 
6.59698849780837

>  <JCHEM_POLAR_SURFACE_AREA>  (1) 
73.91

>  <JCHEM_REFRACTIVITY>  (1) 
82.8367

>  <JCHEM_ROTATABLE_BOND_COUNT>  (1) 
3

>  <JCHEM_RULE_OF_FIVE>  (1) 
1

>  <ALOGPS_SOLUBILITY>  (1) 
4.57e-01 g/l

>  <JCHEM_TRADITIONAL_IUPAC>  (1) 
(2R)-14-fluoro-2-methyl-6,9,10,19-tetraazapentacyclo[14.2.1.0^{2,6}.0^{8,18}.0^{12,17}]nonadeca-1(18),8,12(17),13,15-pentaen-11-one

>  <JCHEM_VEBER_RULE>  (1) 
0

>  <DRUGBANK_ID>  (1) 
DB14924

>  <DRUG_GROUPS>  (1) 
approved; investigational

>  <GENERIC_NAME>  (1) 
Ritlecitinib

>  <SYNONYMS>  (1) 
2-propen-1-one, 1-((2S,5R)-2-methyl-5-(7H-pyrrolo(2,3-D)pyrimidin-4-ylamino)-1-piperidinyl)-

>  <PRODUCTS>  (1) 
Litfulo

>  <INTERNATIONAL_BRANDS>  (1) 
Litfulo

>  <SALTS>  (1) 
Ritlecitinib tosylate

$$$$
