1356
     RDKit          2D

  1  0  0  0  0  0  0  0  0  0999 V2000
    2.0000    0.0000    0.0000 Li  0  0  0  0  0 15  0  0  0  0  0  0
M  CHG  1   1   1
M  END
>  <DATABASE_ID>  (1) 
DB01356

>  <DATABASE_NAME>  (1) 
drugbank

>  <SMILES>  (1) 
[Li+]

>  <INCHI_IDENTIFIER>  (1) 
InChI=1S/Li/q+1

>  <INCHI_KEY>  (1) 
HBBGRARXTFLTSG-UHFFFAOYSA-N

>  <FORMULA>  (1) 
Li

>  <MOLECULAR_WEIGHT>  (1) 
6.941

>  <EXACT_MASS>  (1) 
7.016004049

>  <JCHEM_ACCEPTOR_COUNT>  (1) 
0

>  <JCHEM_ATOM_COUNT>  (1) 
1

>  <JCHEM_AVERAGE_NEUTRAL_MICROSPECIES_CHARGE>  (1) 
1.0

>  <JCHEM_AVERAGE_POLARIZABILITY>  (1) 
1.7784

>  <JCHEM_BIOAVAILABILITY>  (1) 
1

>  <JCHEM_DONOR_COUNT>  (1) 
0

>  <JCHEM_FORMAL_CHARGE>  (1) 
1

>  <JCHEM_GHOSE_FILTER>  (1) 
0

>  <JCHEM_IUPAC>  (1) 
lithium(1+) ion

>  <JCHEM_LOGP>  (1) 
0.0

>  <JCHEM_MDDR_LIKE_RULE>  (1) 
0

>  <JCHEM_NEUTRAL_CHARGE>  (1) 
1

>  <JCHEM_NUMBER_OF_RINGS>  (1) 
0

>  <JCHEM_PHYSIOLOGICAL_CHARGE>  (1) 
1

>  <JCHEM_PKA>  (1) 
3.55

>  <JCHEM_PKA_STRONGEST_ACIDIC>  (1) 
3.09

>  <JCHEM_POLAR_SURFACE_AREA>  (1) 
0.0

>  <JCHEM_REFRACTIVITY>  (1) 
0.0

>  <JCHEM_ROTATABLE_BOND_COUNT>  (1) 
0

>  <JCHEM_RULE_OF_FIVE>  (1) 
1

>  <JCHEM_TRADITIONAL_IUPAC>  (1) 
tetrahydrofolic acid

>  <JCHEM_VEBER_RULE>  (1) 
1

>  <DRUGBANK_ID>  (1) 
DB01356

>  <DRUG_GROUPS>  (1) 
approved; investigational; withdrawn

>  <GENERIC_NAME>  (1) 
Lithium cation

>  <SYNONYMS>  (1) 
LI; Li(+); Lithium; Lithium cation; Lithium ion; Lithium, ion; Lithium, ion (li1+)

$$$$
