
     RDKit          2D

  2  0  0  0  0  0  0  0  0  0999 V2000
    0.0000  -68.9429    0.0000 Na  0  0  0  0  0 15  0  0  0  0  0  0
    0.0000   68.9429    0.0000 O   0  0  0  0  0  0  0  0  0  0  0  0
M  CHG  2   1   1   2  -1
M  END
>  <DATABASE_ID>  (1) 
DB11151

>  <DATABASE_NAME>  (1) 
drugbank

>  <SMILES>  (1) 
[OH-].[Na+]

>  <INCHI_IDENTIFIER>  (1) 
InChI=1S/Na.H2O/h;1H2/q+1;/p-1

>  <INCHI_KEY>  (1) 
HEMHJVSKTPXQMS-UHFFFAOYSA-M

>  <FORMULA>  (1) 
HNaO

>  <MOLECULAR_WEIGHT>  (1) 
39.9971

>  <EXACT_MASS>  (1) 
39.992509329

>  <JCHEM_ACCEPTOR_COUNT>  (1) 
0

>  <JCHEM_ATOM_COUNT>  (1) 
3

>  <JCHEM_AVERAGE_NEUTRAL_MICROSPECIES_CHARGE>  (1) 
1.0

>  <JCHEM_AVERAGE_POLARIZABILITY>  (1) 
1.7784

>  <JCHEM_BIOAVAILABILITY>  (1) 
1

>  <JCHEM_DONOR_COUNT>  (1) 
0

>  <JCHEM_FORMAL_CHARGE>  (1) 
0

>  <JCHEM_GHOSE_FILTER>  (1) 
0

>  <JCHEM_IUPAC>  (1) 
sodium hydroxide

>  <JCHEM_LOGP>  (1) 
-0.77

>  <JCHEM_MDDR_LIKE_RULE>  (1) 
0

>  <JCHEM_NEUTRAL_CHARGE>  (1) 
1

>  <JCHEM_NUMBER_OF_RINGS>  (1) 
0

>  <JCHEM_PHYSIOLOGICAL_CHARGE>  (1) 
1

>  <JCHEM_PKA>  (1) 
3.55

>  <JCHEM_PKA_STRONGEST_ACIDIC>  (1) 
3.09

>  <JCHEM_POLAR_SURFACE_AREA>  (1) 
0.0

>  <JCHEM_REFRACTIVITY>  (1) 
0.0

>  <JCHEM_ROTATABLE_BOND_COUNT>  (1) 
0

>  <JCHEM_RULE_OF_FIVE>  (1) 
1

>  <JCHEM_TRADITIONAL_IUPAC>  (1) 
tetrahydrofolic acid

>  <JCHEM_VEBER_RULE>  (1) 
1

>  <DRUGBANK_ID>  (1) 
DB11151

>  <DRUG_GROUPS>  (1) 
approved

>  <GENERIC_NAME>  (1) 
Sodium hydroxide

>  <SYNONYMS>  (1) 
caustic soda; lye; soda lye; sodio hidróxido; sodium hydrate; Sodium hydroxide; white caustic

>  <PRODUCTS>  (1) 
Antibacterial Hand Sanitizer; Sodium Hydroxide; Vamin N

$$$$
