
     RDKit          2D

 14 15  0  0  0  0  0  0  0  0999 V2000
   -1.4289   -1.6500    0.0000 C   0  0  0  0  0  0  0  0  0  0  0  0
   -0.7145   -1.2375    0.0000 C   0  0  0  0  0  0  0  0  0  0  0  0
    0.0000   -1.6500    0.0000 N   0  0  0  0  0  0  0  0  0  0  0  0
    0.7145   -1.2375    0.0000 C   0  0  0  0  0  0  0  0  0  0  0  0
    0.7145   -0.4125    0.0000 C   0  0  0  0  0  0  0  0  0  0  0  0
    0.0000   -0.0000    0.0000 C   0  0  0  0  0  0  0  0  0  0  0  0
   -0.7145   -0.4125    0.0000 C   0  0  0  0  0  0  0  0  0  0  0  0
    1.4289   -0.0000    0.0000 C   0  0  0  0  0  0  0  0  0  0  0  0
    2.1434   -0.4125    0.0000 C   0  0  0  0  0  0  0  0  0  0  0  0
    2.1434   -1.2375    0.0000 C   0  0  0  0  0  0  0  0  0  0  0  0
    1.4289   -1.6500    0.0000 C   0  0  0  0  0  0  0  0  0  0  0  0
    1.4289   -2.4750    0.0000 O   0  0  0  0  0  0  0  0  0  0  0  0
    2.8579   -1.6500    0.0000 Cl  0  0  0  0  0  0  0  0  0  0  0  0
    1.4289    0.8250    0.0000 Cl  0  0  0  0  0  0  0  0  0  0  0  0
  1  2  1  0
  2  3  2  0
  3  4  1  0
  4  5  2  0
  5  6  1  0
  6  7  2  0
  2  7  1  0
  5  8  1  0
  8  9  2  0
  9 10  1  0
 10 11  2  0
  4 11  1  0
 11 12  1  0
 10 13  1  0
  8 14  1  0
M  END
>  <DATABASE_ID>  (1) 
DB13306

>  <DATABASE_NAME>  (1) 
drugbank

>  <SMILES>  (1) 
CC1=NC2=C(C=C1)C(Cl)=CC(Cl)=C2O

>  <INCHI_IDENTIFIER>  (1) 
InChI=1S/C10H7Cl2NO/c1-5-2-3-6-7(11)4-8(12)10(14)9(6)13-5/h2-4,14H,1H3

>  <INCHI_KEY>  (1) 
GPTXWRGISTZRIO-UHFFFAOYSA-N

>  <FORMULA>  (1) 
C10H7Cl2NO

>  <MOLECULAR_WEIGHT>  (1) 
228.07

>  <EXACT_MASS>  (1) 
226.9904692

>  <JCHEM_ACCEPTOR_COUNT>  (1) 
2

>  <JCHEM_ATOM_COUNT>  (1) 
21

>  <JCHEM_AVERAGE_POLARIZABILITY>  (1) 
21.6215287023275

>  <JCHEM_BIOAVAILABILITY>  (1) 
1

>  <JCHEM_DONOR_COUNT>  (1) 
1

>  <JCHEM_FORMAL_CHARGE>  (1) 
0

>  <JCHEM_GHOSE_FILTER>  (1) 
1

>  <JCHEM_IUPAC>  (1) 
5,7-dichloro-2-methylquinolin-8-ol

>  <ALOGPS_LOGP>  (1) 
3.82

>  <JCHEM_LOGP>  (1) 
3.1667946713333333

>  <ALOGPS_LOGS>  (1) 
-3.63

>  <JCHEM_MDDR_LIKE_RULE>  (1) 
0

>  <JCHEM_NUMBER_OF_RINGS>  (1) 
2

>  <JCHEM_PHYSIOLOGICAL_CHARGE>  (1) 
-1

>  <JCHEM_PKA_STRONGEST_ACIDIC>  (1) 
6.985832616333205

>  <JCHEM_PKA_STRONGEST_BASIC>  (1) 
4.000196394781995

>  <JCHEM_POLAR_SURFACE_AREA>  (1) 
33.120000000000005

>  <JCHEM_REFRACTIVITY>  (1) 
56.16130000000001

>  <JCHEM_ROTATABLE_BOND_COUNT>  (1) 
0

>  <JCHEM_RULE_OF_FIVE>  (1) 
1

>  <ALOGPS_SOLUBILITY>  (1) 
5.38e-02 g/l

>  <JCHEM_TRADITIONAL_IUPAC>  (1) 
chlorquinaldol

>  <JCHEM_VEBER_RULE>  (1) 
1

>  <DRUGBANK_ID>  (1) 
DB13306

>  <DRUG_GROUPS>  (1) 
approved

>  <GENERIC_NAME>  (1) 
Chlorquinaldol

>  <SYNONYMS>  (1) 
2-methyl-5,7-dichloro-8-hydroxyquinoline; 5,7-dichloro-2-methyl-8-hydroxyquinoline; 5,7-dichloro-2-methyl-8-quinolinol; 5,7-dichloro-8-hydroxy-2-methylquinoline; 5,7-dichloro-8-hydroxyquinaldine; 5,7-dichloro-8-quinaldinol; Chlorchinaldol; Chlorquinaldol; Chlorquinaldolum; Clorquinaldol

>  <PRODUCTS>  (1) 
T.R.U.E. Test Thin-Layer Rapid Use Patch Test

$$$$
