748
     RDKit          2D

 20 21  0  0  1  0  0  0  0  0999 V2000
    3.7935   -3.0938    0.0000 Cl  0  0  0  0  0  0  0  0  0  0  0  0
    3.0791    0.6188    0.0000 O   0  0  0  0  0  0  0  0  0  0  0  0
    2.3645    2.6813    0.0000 N   0  0  0  0  0  0  0  0  0  0  0  0
    4.5080    1.4438    0.0000 N   0  0  0  0  0  0  0  0  0  0  0  0
    3.7935    0.2063    0.0000 C   0  0  0  0  0  0  0  0  0  0  0  0
    3.0791    1.4438    0.0000 C   0  0  0  0  0  0  0  0  0  0  0  0
    2.3645    1.8563    0.0000 C   0  0  0  0  0  0  0  0  0  0  0  0
    3.7935   -0.6188    0.0000 C   0  0  0  0  0  0  0  0  0  0  0  0
    4.5080    0.6188    0.0000 C   0  0  0  0  0  0  0  0  0  0  0  0
    4.5080   -1.0313    0.0000 C   0  0  0  0  0  0  0  0  0  0  0  0
    3.0791   -1.0313    0.0000 C   0  0  0  0  0  0  0  0  0  0  0  0
    5.2224    0.2063    0.0000 C   0  0  0  0  0  0  0  0  0  0  0  0
    3.0791    3.0938    0.0000 C   0  0  0  0  0  0  0  0  0  0  0  0
    1.6500    3.0938    0.0000 C   0  0  0  0  0  0  0  0  0  0  0  0
    4.5080   -1.8563    0.0000 C   0  0  0  0  0  0  0  0  0  0  0  0
    3.0791   -1.8563    0.0000 C   0  0  0  0  0  0  0  0  0  0  0  0
    3.7935   -2.2688    0.0000 C   0  0  0  0  0  0  0  0  0  0  0  0
    5.9370    0.6188    0.0000 C   0  0  0  0  0  0  0  0  0  0  0  0
    5.2224    1.8563    0.0000 C   0  0  0  0  0  0  0  0  0  0  0  0
    5.9370    1.4438    0.0000 C   0  0  0  0  0  0  0  0  0  0  0  0
  1 17  1  0
  2  5  1  0
  2  6  1  0
  3  7  1  0
  3 13  1  0
  3 14  1  0
  4  9  2  0
  4 19  1  0
  5  8  1  0
  5  9  1  0
  6  7  1  0
  8 10  2  0
  8 11  1  0
  9 12  1  0
 10 15  1  0
 11 16  2  0
 12 18  2  0
 15 17  2  0
 16 17  1  0
 18 20  1  0
 19 20  2  0
M  END
>  <DATABASE_ID>  (1) 
DB00748

>  <DATABASE_NAME>  (1) 
drugbank

>  <SMILES>  (1) 
CN(C)CCOC(C1=CC=C(Cl)C=C1)C1=CC=CC=N1

>  <INCHI_IDENTIFIER>  (1) 
InChI=1S/C16H19ClN2O/c1-19(2)11-12-20-16(15-5-3-4-10-18-15)13-6-8-14(17)9-7-13/h3-10,16H,11-12H2,1-2H3

>  <INCHI_KEY>  (1) 
OJFSXZCBGQGRNV-UHFFFAOYSA-N

>  <FORMULA>  (1) 
C16H19ClN2O

>  <MOLECULAR_WEIGHT>  (1) 
290.788

>  <EXACT_MASS>  (1) 
290.118590947

>  <JCHEM_ACCEPTOR_COUNT>  (1) 
3

>  <JCHEM_ATOM_COUNT>  (1) 
39

>  <JCHEM_AVERAGE_NEUTRAL_MICROSPECIES_CHARGE>  (1) 
0.9868058920845939

>  <JCHEM_AVERAGE_POLARIZABILITY>  (1) 
31.699436427866196

>  <JCHEM_BIOAVAILABILITY>  (1) 
1

>  <JCHEM_DONOR_COUNT>  (1) 
0

>  <JCHEM_FORMAL_CHARGE>  (1) 
0

>  <JCHEM_GHOSE_FILTER>  (1) 
1

>  <JCHEM_IUPAC>  (1) 
{2-[(4-chlorophenyl)(pyridin-2-yl)methoxy]ethyl}dimethylamine

>  <ALOGPS_LOGP>  (1) 
3.03

>  <JCHEM_LOGP>  (1) 
3.2719406193333334

>  <ALOGPS_LOGS>  (1) 
-3.11

>  <JCHEM_MDDR_LIKE_RULE>  (1) 
0

>  <JCHEM_NEUTRAL_CHARGE>  (1) 
1

>  <JCHEM_NUMBER_OF_RINGS>  (1) 
2

>  <JCHEM_PHYSIOLOGICAL_CHARGE>  (1) 
1

>  <JCHEM_PKA_STRONGEST_BASIC>  (1) 
8.867034608008378

>  <JCHEM_POLAR_SURFACE_AREA>  (1) 
25.36

>  <JCHEM_REFRACTIVITY>  (1) 
82.12780000000001

>  <JCHEM_ROTATABLE_BOND_COUNT>  (1) 
6

>  <JCHEM_RULE_OF_FIVE>  (1) 
1

>  <ALOGPS_SOLUBILITY>  (1) 
2.28e-01 g/l

>  <JCHEM_TRADITIONAL_IUPAC>  (1) 
tetrahydrofolic acid

>  <JCHEM_VEBER_RULE>  (1) 
1

>  <DRUGBANK_ID>  (1) 
DB00748

>  <SECONDARY_ACCESSION_NUMBERS>  (1) 
APRD00765

>  <DRUG_GROUPS>  (1) 
approved

>  <GENERIC_NAME>  (1) 
Carbinoxamine

>  <SYNONYMS>  (1) 
(±)-carbinoxamine; {2-[(4-Chloro-phenyl)-pyridin-2-yl-methoxy]-ethyl}-dimethyl-amine; 2-(p-chloro-α-(2-(dimethylamino)ethoxy)benzyl)pyridine; Carbinoxamin; Carbinoxamina; Carbinoxamine; Carbinoxamine base; Carbinoxaminum; Paracarbinoxamine

>  <PRODUCTS>  (1) 
Arbinoxa; Carbinoxamine Maleate; Carbinoxamine Maleate Extended-Release Oral Suspension; Carbinoxamine/Pseudoephedrine/DM; Carbzah; Coldec DS; Karbinal ER; Palgic; Rondamine DM; RyVent

>  <INTERNATIONAL_BRANDS>  (1) 
Allergefon; Clistin; Histin; Karbinal; Rotoxamine; Satinmin

>  <SALTS>  (1) 
Carbinoxamine maleate

$$$$
