
     RDKit          2D

  4  3  0  0  0  0  0  0  0  0999 V2000
    2.3643    0.2063    0.0000 S   0  0  0  0  0  0  0  0  0  0  0  0
    3.0789    0.6187    0.0000 O   0  0  0  0  0  0  0  0  0  0  0  0
    1.6499    0.6187    0.0000 C   0  0  0  0  0  0  0  0  0  0  0  0
    2.3643   -0.6187    0.0000 C   0  0  0  0  0  0  0  0  0  0  0  0
  1  2  2  0
  1  3  1  0
  1  4  1  0
M  END
>  <DATABASE_ID>  (1) 
DB01093

>  <DATABASE_NAME>  (1) 
drugbank

>  <SMILES>  (1) 
CS(C)=O

>  <INCHI_IDENTIFIER>  (1) 
InChI=1S/C2H6OS/c1-4(2)3/h1-2H3

>  <INCHI_KEY>  (1) 
IAZDPXIOMUYVGZ-UHFFFAOYSA-N

>  <FORMULA>  (1) 
C2H6OS

>  <MOLECULAR_WEIGHT>  (1) 
78.133

>  <EXACT_MASS>  (1) 
78.013935504

>  <JCHEM_ACCEPTOR_COUNT>  (1) 
1

>  <JCHEM_ATOM_COUNT>  (1) 
10

>  <JCHEM_AVERAGE_NEUTRAL_MICROSPECIES_CHARGE>  (1) 
0.0

>  <JCHEM_AVERAGE_POLARIZABILITY>  (1) 
7.907572341408355

>  <JCHEM_BIOAVAILABILITY>  (1) 
1

>  <JCHEM_DONOR_COUNT>  (1) 
0

>  <JCHEM_FORMAL_CHARGE>  (1) 
0

>  <JCHEM_GHOSE_FILTER>  (1) 
0

>  <JCHEM_IUPAC>  (1) 
methanesulfinylmethane

>  <ALOGPS_LOGP>  (1) 
-1.09

>  <JCHEM_LOGP>  (1) 
-1.407865647333333

>  <ALOGPS_LOGS>  (1) 
-0.08

>  <JCHEM_MDDR_LIKE_RULE>  (1) 
0

>  <JCHEM_NEUTRAL_CHARGE>  (1) 
0

>  <JCHEM_NUMBER_OF_RINGS>  (1) 
0

>  <JCHEM_PHYSIOLOGICAL_CHARGE>  (1) 
0

>  <JCHEM_PKA_STRONGEST_BASIC>  (1) 
-7.980512777159162

>  <JCHEM_POLAR_SURFACE_AREA>  (1) 
17.07

>  <JCHEM_REFRACTIVITY>  (1) 
20.7254

>  <JCHEM_ROTATABLE_BOND_COUNT>  (1) 
0

>  <JCHEM_RULE_OF_FIVE>  (1) 
1

>  <ALOGPS_SOLUBILITY>  (1) 
6.57e+01 g/l

>  <JCHEM_TRADITIONAL_IUPAC>  (1) 
tetrahydrofolic acid

>  <JCHEM_VEBER_RULE>  (1) 
1

>  <DRUGBANK_ID>  (1) 
DB01093

>  <SECONDARY_ACCESSION_NUMBERS>  (1) 
APRD00925; EXPT01231

>  <DRUG_GROUPS>  (1) 
approved; investigational; vet_approved

>  <GENERIC_NAME>  (1) 
Dimethyl sulfoxide

>  <SYNONYMS>  (1) 
Dimethyl sulfoxide; Dimethyl sulfur oxide; Dimethyl sulphoxide; Dimethyli sulfoxidum; Dimethylsulfoxid; Diméthylsulfoxyde; Dimetil sulfóxido; DMSO; Methylsulfinylmethane; S(O)Me2; Sulfinylbis(methane)

>  <PRODUCTS>  (1) 
Dimethyl Sulfoxide Irrigation USP; Fungizyl AC; Fungizyl AL; Kemsol Liquid 70%; Rimso-50

$$$$
