
     RDKit          2D

  5  3  0  0  0  0  0  0  0  0999 V2000
   -1.1959    0.6180    0.0000 K   0  0  0  0  0 15  0  0  0  0  0  0
    1.1959    0.6180    0.0000 O   0  0  0  0  0  0  0  0  0  0  0  0
    0.4534   -0.6180    0.0000 O   0  0  0  0  0  0  0  0  0  0  0  0
    0.4534    0.2070    0.0000 C   0  0  0  0  0  0  0  0  0  0  0  0
   -0.2059    0.6180    0.0000 O   0  0  0  0  0  0  0  0  0  0  0  0
  2  4  2  0
  3  4  1  0
  4  5  1  0
M  CHG  2   1   1   3  -1
M  END
>  <DATABASE_ID>  (1) 
DB11098

>  <DATABASE_NAME>  (1) 
drugbank

>  <SMILES>  (1) 
[K+].OC([O-])=O

>  <INCHI_IDENTIFIER>  (1) 
InChI=1S/CH2O3.K/c2-1(3)4;/h(H2,2,3,4);/q;+1/p-1

>  <INCHI_KEY>  (1) 
TYJJADVDDVDEDZ-UHFFFAOYSA-M

>  <FORMULA>  (1) 
CHKO3

>  <MOLECULAR_WEIGHT>  (1) 
100.1151

>  <EXACT_MASS>  (1) 
99.956275759

>  <JCHEM_ACCEPTOR_COUNT>  (1) 
3

>  <JCHEM_ATOM_COUNT>  (1) 
6

>  <JCHEM_AVERAGE_NEUTRAL_MICROSPECIES_CHARGE>  (1) 
-1.0006337308913795

>  <JCHEM_AVERAGE_POLARIZABILITY>  (1) 
3.860121269879195

>  <JCHEM_BIOAVAILABILITY>  (1) 
1

>  <JCHEM_DONOR_COUNT>  (1) 
1

>  <JCHEM_FORMAL_CHARGE>  (1) 
0

>  <JCHEM_GHOSE_FILTER>  (1) 
0

>  <JCHEM_IUPAC>  (1) 
potassium hydrogen carbonate

>  <ALOGPS_LOGP>  (1) 
-0.08

>  <JCHEM_LOGP>  (1) 
0.25005136566666664

>  <ALOGPS_LOGS>  (1) 
0.83

>  <JCHEM_MDDR_LIKE_RULE>  (1) 
0

>  <JCHEM_NEUTRAL_CHARGE>  (1) 
-1

>  <JCHEM_NUMBER_OF_RINGS>  (1) 
0

>  <JCHEM_PHYSIOLOGICAL_CHARGE>  (1) 
-1

>  <JCHEM_PKA>  (1) 
10.322599505540001

>  <JCHEM_PKA_STRONGEST_ACIDIC>  (1) 
3.501076428435099

>  <JCHEM_POLAR_SURFACE_AREA>  (1) 
60.36

>  <JCHEM_REFRACTIVITY>  (1) 
20.3353

>  <JCHEM_ROTATABLE_BOND_COUNT>  (1) 
0

>  <JCHEM_RULE_OF_FIVE>  (1) 
1

>  <ALOGPS_SOLUBILITY>  (1) 
6.81e+02 g/l

>  <JCHEM_TRADITIONAL_IUPAC>  (1) 
biotin

>  <JCHEM_VEBER_RULE>  (1) 
0

>  <DRUGBANK_ID>  (1) 
DB11098

>  <DRUG_GROUPS>  (1) 
approved; investigational

>  <GENERIC_NAME>  (1) 
Potassium bicarbonate

>  <SYNONYMS>  (1) 
Carbonic acid, monopotassium salt; Potassium bicarbonate; Potassium hydrogen carbonate

>  <PRODUCTS>  (1) 
Alka-Seltzer Gold; BasoSAN; Betacol; Buffered Vitamin C Pwr W Cal-mag-potassium; Calcor; Coenzyme Q10 Isotonix Vitamin and Mineral Supplement; Effer-K 10 mEq Cherry Vanilla; Effer-K 10 mEq Unflavored; Effer-K 20 mEq Orange Cream; Effer-K 20 mEq Unflavored; Effer-K Cherry Berry; Effer-K Lemon Citrus; Effer-K Orange; Effer-K Unflavored; Effervescent Potassium Chloride; Isotonix Advanced B-complex Vitamins With Potassium and Magnesium; Isotonix Vitamin B-folic Acid-mineral Supple; K-Vescent Efffervescent; K-effervescent; KLOR-Con/EF; Klor-con/ef; Multi-min Electro C Pow Plus B2; Neo K; Pleo Alkala Antacid; Potassium Bicarbonate; Potassium Bicarbonate Eff; Potassium-novartis; Relief OTC antacid; Sibnayal; Solution Carda; TowerX Effervescent Potassium

$$$$
