
     RDKit          2D

 46 49  0  0  0  0  0  0  0  0999 V2000
    0.3562   -0.2067    0.0000 O   0  0  0  0  0  0  0  0  0  0  0  0
    0.3562   -1.0316    0.0000 C   0  0  0  0  0  0  0  0  0  0  0  0
   -0.3562   -1.4432    0.0000 C   0  0  0  0  0  0  0  0  0  0  0  0
    1.0727   -1.4432    0.0000 C   0  0  0  0  0  0  0  0  0  0  0  0
   -1.0706   -1.0316    0.0000 C   0  0  0  0  0  0  0  0  0  0  0  0
   -0.3562   -2.2682    0.0000 C   0  0  0  0  0  0  0  0  0  0  0  0
    1.0727   -2.2682    0.0000 C   0  0  0  0  0  0  0  0  0  0  0  0
   -1.0706   -0.2067    0.0000 N   0  0  0  0  0  0  0  0  0  0  0  0
   -1.7851   -1.4432    0.0000 N   0  0  0  0  0  0  0  0  0  0  0  0
    0.3562   -2.6817    0.0000 C   0  0  0  0  0  0  0  0  0  0  0  0
    1.7871   -2.6817    0.0000 O   0  0  0  0  0  0  0  0  0  0  0  0
   -1.7851    0.2067    0.0000 C   0  0  0  0  0  0  0  0  0  0  0  0
   -2.5016   -1.0316    0.0000 C   0  0  0  0  0  0  0  0  0  0  0  0
    2.5016   -2.2682    0.0000 C   0  0  0  0  0  0  0  0  0  0  0  0
   -2.5016   -0.2067    0.0000 N   0  0  0  0  0  0  0  0  0  0  0  0
   -1.7851    1.0317    0.0000 C   0  0  0  0  0  0  0  0  0  0  0  0
   -3.2160   -1.4432    0.0000 C   0  0  0  0  0  0  0  0  0  0  0  0
    3.2160   -2.6817    0.0000 C   0  0  0  0  0  0  0  0  0  0  0  0
   -2.4975    1.4432    0.0000 C   0  0  0  0  0  0  0  0  0  0  0  0
   -1.0686    1.4432    0.0000 C   0  0  0  0  0  0  0  0  0  0  0  0
   -3.2160   -2.2682    0.0000 C   0  0  0  0  0  0  0  0  0  0  0  0
   -3.9284   -1.0316    0.0000 C   0  0  0  0  0  0  0  0  0  0  0  0
    3.9305   -2.2682    0.0000 C   0  0  0  0  0  0  0  0  0  0  0  0
    3.2160   -3.5066    0.0000 C   0  0  0  0  0  0  0  0  0  0  0  0
   -3.2119    1.0317    0.0000 O   0  0  0  0  0  0  0  0  0  0  0  0
   -2.4975    2.2682    0.0000 C   0  0  0  0  0  0  0  0  0  0  0  0
   -1.0686    2.2682    0.0000 C   0  0  0  0  0  0  0  0  0  0  0  0
   -3.9284   -2.6817    0.0000 C   0  0  0  0  0  0  0  0  0  0  0  0
   -4.6449   -1.4432    0.0000 C   0  0  0  0  0  0  0  0  0  0  0  0
    4.6449   -2.6817    0.0000 C   0  0  0  0  0  0  0  0  0  0  0  0
    3.9305   -3.9182    0.0000 C   0  0  0  0  0  0  0  0  0  0  0  0
   -1.7851    2.6817    0.0000 C   0  0  0  0  0  0  0  0  0  0  0  0
   -4.6449   -2.2682    0.0000 C   0  0  0  0  0  0  0  0  0  0  0  0
    5.3594   -2.2682    0.0000 C   0  0  0  0  0  0  0  0  0  0  0  0
   -1.7851    3.5067    0.0000 O   0  0  0  0  0  0  0  0  0  0  0  0
   -5.3594   -2.6817    0.0000 O   0  0  0  0  0  0  0  0  0  0  0  0
    6.0738   -2.6817    0.0000 C   0  0  0  0  0  0  0  0  0  0  0  0
   -1.0706    3.9182    0.0000 C   0  0  0  0  0  0  0  0  0  0  0  0
   -6.0738   -2.2682    0.0000 C   0  0  0  0  0  0  0  0  0  0  0  0
   -0.3562    3.5067    0.0000 C   0  0  0  0  0  0  0  0  0  0  0  0
    0.3581    3.9182    0.0000 C   0  0  0  0  0  0  0  0  0  0  0  0
   -0.3562    2.6817    0.0000 C   0  0  0  0  0  0  0  0  0  0  0  0
    1.0727    3.5067    0.0000 C   0  0  0  0  0  0  0  0  0  0  0  0
    0.3581    2.2682    0.0000 C   0  0  0  0  0  0  0  0  0  0  0  0
    1.7871    3.9182    0.0000 C   0  0  0  0  0  0  0  0  0  0  0  0
    2.5016    3.5067    0.0000 C   0  0  0  0  0  0  0  0  0  0  0  0
  1  2  1  0
  2  3  2  0
  2  4  1  0
  3  5  1  0
  3  6  1  0
  4  7  2  0
  5  8  2  0
  5  9  1  0
  6 10  2  0
  7 10  1  0
  7 11  1  0
  8 12  1  0
  9 13  2  0
 11 14  1  0
 12 15  2  0
 12 16  1  0
 13 15  1  0
 13 17  1  0
 14 18  1  0
 16 19  2  0
 16 20  1  0
 17 21  2  0
 17 22  1  0
 18 23  1  0
 18 24  1  0
 19 25  1  0
 19 26  1  0
 20 27  2  0
 21 28  1  0
 22 29  2  0
 23 30  1  0
 24 31  1  0
 26 32  2  0
 27 32  1  0
 28 33  2  0
 29 33  1  0
 30 34  1  0
 32 35  1  0
 33 36  1  0
 34 37  1  0
 35 38  1  0
 36 39  1  0
 38 40  1  0
 40 41  1  0
 40 42  1  0
 41 43  1  0
 42 44  1  0
 43 45  1  0
 45 46  1  0
M  END
>  <DATABASE_ID>  (1) 
DB11206

>  <DATABASE_NAME>  (1) 
drugbank

>  <SMILES>  (1) 
CCCCC(CC)COC1=CC(O)=C(C=C1)C1=NC(=NC(=N1)C1=CC=C(OC)C=C1)C1=C(O)C=C(OCC(CC)CCCC)C=C1

>  <INCHI_IDENTIFIER>  (1) 
InChI=1S/C38H49N3O5/c1-6-10-12-26(8-3)24-45-30-18-20-32(34(42)22-30)37-39-36(28-14-16-29(44-5)17-15-28)40-38(41-37)33-21-19-31(23-35(33)43)46-25-27(9-4)13-11-7-2/h14-23,26-27,42-43H,6-13,24-25H2,1-5H3

>  <INCHI_KEY>  (1) 
XVAMCHGMPYWHNL-UHFFFAOYSA-N

>  <FORMULA>  (1) 
C38H49N3O5

>  <MOLECULAR_WEIGHT>  (1) 
627.826

>  <EXACT_MASS>  (1) 
627.36722169

>  <JCHEM_ACCEPTOR_COUNT>  (1) 
8

>  <JCHEM_ATOM_COUNT>  (1) 
95

>  <JCHEM_AVERAGE_POLARIZABILITY>  (1) 
75.71284920882857

>  <JCHEM_BIOAVAILABILITY>  (1) 
0

>  <JCHEM_DONOR_COUNT>  (1) 
2

>  <JCHEM_FORMAL_CHARGE>  (1) 
0

>  <JCHEM_GHOSE_FILTER>  (1) 
0

>  <JCHEM_IUPAC>  (1) 
5-[(2-ethylhexyl)oxy]-2-(4-{4-[(2-ethylhexyl)oxy]-2-hydroxyphenyl}-6-(4-methoxyphenyl)-1,3,5-triazin-2-yl)phenol

>  <ALOGPS_LOGP>  (1) 
8.26

>  <JCHEM_LOGP>  (1) 
11.621529370333333

>  <ALOGPS_LOGS>  (1) 
-6.27

>  <JCHEM_MDDR_LIKE_RULE>  (1) 
1

>  <JCHEM_NUMBER_OF_RINGS>  (1) 
4

>  <JCHEM_PHYSIOLOGICAL_CHARGE>  (1) 
-1

>  <JCHEM_PKA>  (1) 
6.973505572917466

>  <JCHEM_PKA_STRONGEST_ACIDIC>  (1) 
6.369509348630395

>  <JCHEM_PKA_STRONGEST_BASIC>  (1) 
0.35301857401087566

>  <JCHEM_POLAR_SURFACE_AREA>  (1) 
106.82000000000002

>  <JCHEM_REFRACTIVITY>  (1) 
216.40269999999998

>  <JCHEM_ROTATABLE_BOND_COUNT>  (1) 
18

>  <JCHEM_RULE_OF_FIVE>  (1) 
0

>  <ALOGPS_SOLUBILITY>  (1) 
3.39e-04 g/l

>  <JCHEM_TRADITIONAL_IUPAC>  (1) 
tinosorb S

>  <JCHEM_VEBER_RULE>  (1) 
0

>  <DRUGBANK_ID>  (1) 
DB11206

>  <DRUG_GROUPS>  (1) 
approved

>  <GENERIC_NAME>  (1) 
Bemotrizinol

>  <SYNONYMS>  (1) 
Bemotrizinol; BEMT

>  <PRODUCTS>  (1) 
Anthelios 50+; Anthelios Age Correct; Anthelios Dermo-kids 50+; Anthelios SPF 45; Anthelios Spray SPF 45; Anthelios XL Melt-IN Cream; Aqua-fluid; BRING GREEN Tea Tree CICA Cooling Sun; Celgen Mild Sun; Codenature Viami Tone Up Shield Cream; Complete Hypoallergenic Spf45 Lotion; Complete Hypoallergenic Spf60 Lotion; Dpc Pink Aura Cushion No.21; Dpc Pink Aura Cushion No.23; Dr.Jucre Rebirth Sun Protection; Dr.Jucre Rebirth White Sun Protection; ELROEL Pang Pang Big Sun Cushion S7; ELROEL Pang Pang Mini Sun Cushion S7; Emulsion SPF 50+; Face Daily Uv Anti-aging Moisturizer; Face Daily Uv Anti-dry Moisturizer; Face Daily Uv Tinted Moisturizer; Face SPF 50+ Tinted Sunscreen Lotion; Face Visage Hypoallergenic Sunscreen Lotion; Fascy Lab Green Plus Sun; Fave Fluid Spf50+ Ultralight Screen; Fps 60 Lotion Uv Ultra-Légère; Garnier Ombrelle Daily UV 60 Antidry Moisturizer Sunscreen; Garnier Ombrelle Ultra Light Advanced 60 Face Sunscreen; Garnier Ombrelle Ultra Light Advanced Broad Spectrum SPF 60 Sunscreen; Hansai Beestox Sun Cream SPF 50; Hansai Beestox Trial Kit Set Beestox Sun Cream; High Protection Emulsion; High Protection Lotion; High Protection Lotion SPF 50+; High Protection Spray SPF 50+; Homme Aqua Sun Block SPF50 Plus PA 2Plus; Kids Spray; Kiehls Activated Sun Protector Sunscreen SPF 30 For Face and Body For All Skin Types; Kiehls Activated Sun Protector Sunscreen SPF 50 For Face and Body For All Skin Types; Kiehls Dermatologist Solutions Ultra Light Daily Uv Defense Sunscreen SPF 50 High Protection Anti-pollution Lightweight Formula for All Skin Types; Kiehls Since 1851 Dermatologist Solutions Ultra Light Daily UV Defense Tone Up SPF 50 PA Plus Plus Plus Plus Antipollution; Kiehls Ultra Light Daily UV Defense Aqua Gel SPF 50 Anti-Pollution; Kiehls Ultra Light Daily UV Defense CC SPF 50 Anti Pollution; LAPOTHICELL Sunscreen; Lightening High Sun Protection Cream; LovLuv Daily Sunflower Sunscreen; MEDIKOii Bio-UV Protect Laser Master; MediSpa Sunspray (sunblock); Melan Sunscreen SPF 50; Menow Sunscreen; Moderate Protection Emulsion; Nature Republic California Moisturizing Aloe Aqua Sun Stick SPF 50+; Nourishing Day Cream CRème De Jour Nourrissante SPF 15 Fps 15; O Hui White Extreme Blemish Balm; OHUI SUN SCIENCE Perfect Sunblock Blue EX plus; OHUI Sun Science intensive sunblock cake EX; Ohui Sunscience Luminous Whitening Sunblock; Omar Sharif Everyday Sun Protection Broad Spectrum SPF 50; Ombrelle Ultra Light Advanced Lotion; P.CALM Water Barrier Suncream; Ph.Hubby 1g Sun Cream Intensive Protection; Ph.Hubby Beige BB Tone Up Sun; Ph.Hubby Pink BB Tone Up Sun; Photoderm SPF/fps 50+ CRème; Photoderm SPF/fps 50+ Lait; Premium Ultra Uv Pure Sun; Queen Screen Luminising Skinscreen; Refreshing Day Cream CRème De Jour Rafraîchissante SPF 15 Fps 15; Roc Minesol Protect Ultra High Protection Suncare Cream SPF 60; Roc Soleil Protexion Daily Anti-ageing Sunscreen; Ruby-Cell 4U Plus Sun; SUN PROJECT SILKY CALMING SUN stick; Soleil Protexion Sun Lip Stick Velvet Moisture SPF 30; Soleil Protexion Velvet Moisture SPF 30; Soleil Protexion Velvet Moisture SPF 60; Sooryehan Hyo Fermented Blemish Balm; Sooryehan Hyo Fermented Sun Block; Spa Skilha Helioprot Ab SPF 40; Sun Barrier UV Aqua Sun Broad Spectrum SPF 50; Sun Barrier UV Milk Broad Spectrum SPF 50; Sun Barrier UV Protector Broad Spectrum SPF 50; Sun Barrier UV Shaking Broad Spectrum SPF 50; Supreme Hydrating Facial Screen; The History Of Whoo Gong Jin Hyang Hae Yoon Sun; The History Of Whoo Gongjinhyang Mi Pact 1; The History Of Whoo Gongjinhyang Mi Pact 2; The History of Whoo Jin Hae Yoon Sun; UV Capture Sebum Control Sun Cream; UV Capture Water Zero Sunspray; Ultra Fluide Corps; Ultra Fluide Visage; Ultra Light Advanced Lotion; Ultra Protection; Ultra-hydrating Uv Lotion; Ultra-light Uv Lotion; Uv+age Daily; a.c. care Bees Sun Protection; a.c.care Bees Sun Protection UV Moisturizer SPF 50; be Flat Daily Mild Flat Sun Block

$$$$
