
     RDKit          2D

 11 12  0  0  0  0  0  0  0  0999 V2000
   -0.1712   -0.6979    0.0000 N   0  0  0  0  0  0  0  0  0  0  0  0
    0.6538   -0.6979    0.0000 C   0  0  0  0  0  0  0  0  0  0  0  0
    1.1387   -0.0305    0.0000 N   0  0  0  0  0  0  0  0  0  0  0  0
    1.9233   -0.2854    0.0000 C   0  0  0  0  0  0  0  0  0  0  0  0
    2.6378    0.1271    0.0000 C   0  0  0  0  0  0  0  0  0  0  0  0
    3.3523   -0.2854    0.0000 C   0  0  0  0  0  0  0  0  0  0  0  0
    4.0668    0.1271    0.0000 Cl  0  0  0  0  0  0  0  0  0  0  0  0
    3.3523   -1.1104    0.0000 C   0  0  0  0  0  0  0  0  0  0  0  0
    2.6378   -1.5229    0.0000 C   0  0  0  0  0  0  0  0  0  0  0  0
    1.9233   -1.1104    0.0000 C   0  0  0  0  0  0  0  0  0  0  0  0
    1.1387   -1.3654    0.0000 O   0  0  0  0  0  0  0  0  0  0  0  0
  1  2  1  0
  2  3  2  0
  3  4  1  0
  4  5  2  0
  5  6  1  0
  6  7  1  0
  6  8  2  0
  8  9  1  0
  9 10  2  0
  4 10  1  0
 10 11  1  0
  2 11  1  0
M  END
>  <DATABASE_ID>  (1) 
DB19372

>  <DATABASE_NAME>  (1) 
drugbank

>  <SMILES>  (1) 
NC1=NC2=CC(Cl)=CC=C2O1

>  <INCHI_IDENTIFIER>  (1) 
InChI=1S/C7H5ClN2O/c8-4-1-2-6-5(3-4)10-7(9)11-6/h1-3H,(H2,9,10)

>  <INCHI_KEY>  (1) 
YGCODSQDUUUKIV-UHFFFAOYSA-N

>  <FORMULA>  (1) 
C7H5ClN2O

>  <MOLECULAR_WEIGHT>  (1) 
168.58

>  <EXACT_MASS>  (1) 
168.0090405

>  <DRUGBANK_ID>  (1) 
DB19372

>  <DRUG_GROUPS>  (1) 
approved; withdrawn

>  <GENERIC_NAME>  (1) 
Zoxazolamine

>  <SYNONYMS>  (1) 
2-amino-5-chlorobenzoxazole; 5-chloro-2-benzoxazolamine; Contrazole; Deflexol; Flexin; Miazol; Uri-boi; Zoxamine; Zoxine

$$$$
