6116
     RDKit          2D

  9  6  0  0  0  0  0  0  0  0999 V2000
    3.7932    0.2063    0.0000 Ca  0  0  0  0  0 15  0  0  0  0  0  0
    3.0788    0.6188    0.0000 O   0  0  0  0  0  0  0  0  0  0  0  0
    4.5077    0.6188    0.0000 O   0  0  0  0  0  0  0  0  0  0  0  0
    2.3643   -0.6188    0.0000 O   0  0  0  0  0  0  0  0  0  0  0  0
    5.2220   -0.6188    0.0000 O   0  0  0  0  0  0  0  0  0  0  0  0
    1.6499    0.6188    0.0000 C   0  0  0  0  0  0  0  0  0  0  0  0
    5.9365    0.6188    0.0000 C   0  0  0  0  0  0  0  0  0  0  0  0
    2.3643    0.2063    0.0000 C   0  0  0  0  0  0  0  0  0  0  0  0
    5.2220    0.2063    0.0000 C   0  0  0  0  0  0  0  0  0  0  0  0
  2  8  1  0
  3  9  1  0
  4  8  2  0
  5  9  2  0
  6  8  1  0
  7  9  1  0
M  CHG  3   1   2   2  -1   3  -1
M  END
>  <DATABASE_ID>  (1) 
DB00258

>  <DATABASE_NAME>  (1) 
drugbank

>  <SMILES>  (1) 
[Ca++].CC([O-])=O.CC([O-])=O

>  <INCHI_IDENTIFIER>  (1) 
InChI=1S/2C2H4O2.Ca/c2*1-2(3)4;/h2*1H3,(H,3,4);/q;;+2/p-2

>  <INCHI_KEY>  (1) 
VSGNNIFQASZAOI-UHFFFAOYSA-L

>  <FORMULA>  (1) 
C4H6CaO4

>  <MOLECULAR_WEIGHT>  (1) 
158.166

>  <EXACT_MASS>  (1) 
157.989199835

>  <JCHEM_ACCEPTOR_COUNT>  (1) 
2

>  <JCHEM_ATOM_COUNT>  (1) 
15

>  <JCHEM_AVERAGE_NEUTRAL_MICROSPECIES_CHARGE>  (1) 
-0.9965172324271198

>  <JCHEM_AVERAGE_POLARIZABILITY>  (1) 
4.95602313349225

>  <JCHEM_BIOAVAILABILITY>  (1) 
1

>  <JCHEM_DONOR_COUNT>  (1) 
0

>  <JCHEM_FORMAL_CHARGE>  (1) 
0

>  <JCHEM_GHOSE_FILTER>  (1) 
0

>  <JCHEM_IUPAC>  (1) 
calcium diacetate

>  <ALOGPS_LOGP>  (1) 
0.24

>  <JCHEM_LOGP>  (1) 
-0.2233457143333334

>  <ALOGPS_LOGS>  (1) 
-0.03

>  <JCHEM_MDDR_LIKE_RULE>  (1) 
0

>  <JCHEM_NEUTRAL_CHARGE>  (1) 
-1

>  <JCHEM_NUMBER_OF_RINGS>  (1) 
0

>  <JCHEM_PHYSIOLOGICAL_CHARGE>  (1) 
-1

>  <JCHEM_PKA_STRONGEST_ACIDIC>  (1) 
4.543439679000835

>  <JCHEM_POLAR_SURFACE_AREA>  (1) 
40.129999999999995

>  <JCHEM_REFRACTIVITY>  (1) 
23.4808

>  <JCHEM_ROTATABLE_BOND_COUNT>  (1) 
0

>  <JCHEM_RULE_OF_FIVE>  (1) 
1

>  <ALOGPS_SOLUBILITY>  (1) 
1.47e+02 g/l

>  <JCHEM_TRADITIONAL_IUPAC>  (1) 
biotin

>  <JCHEM_VEBER_RULE>  (1) 
0

>  <DRUGBANK_ID>  (1) 
DB00258

>  <SECONDARY_ACCESSION_NUMBERS>  (1) 
APRD00839

>  <DRUG_GROUPS>  (1) 
approved

>  <GENERIC_NAME>  (1) 
Calcium acetate

>  <SYNONYMS>  (1) 
Acetate of lime; Brown acetate of lime; Calcio acetato; Calcium acetate; calcium ethanoate; calcium(II) acetate; Gray acetate of lime; Lime acetate; Lime pyrolignite

>  <PRODUCTS>  (1) 
Aluminum Acetate Astringent; Astringent; Astringent Solution; Calcium Acetate; Calcium Acetate 667 mg; Calcium Acetate Tab 667mg; Calphron; Domeboro; Eliphos; Hyperlyte (multi-electrolyte Concentrate); Kerasal Athletes Foot Rapid Symptom Relief Medicated Soak; Lypholyte; Lypholyte Multi-electrolyte Conc Inj; Nutrilyte; PhosLo; Phoslo; Phoslo Tablets; Phoslyra; ProcalAmine

>  <INTERNATIONAL_BRANDS>  (1) 
Phoslo; Teltozan

>  <SALTS>  (1) 
Calcium acetate monohydrate

$$$$
