
     RDKit          2D

 12 12  0  0  0  0  0  0  0  0999 V2000
    1.2822    3.1768    0.0000 C   0  0  0  0  0  0  0  0  0  0  0  0
    1.2822    2.3518    0.0000 C   0  0  0  0  0  0  0  0  0  0  0  0
    1.9967    1.9393    0.0000 O   0  0  0  0  0  0  0  0  0  0  0  0
    0.5678    1.9393    0.0000 N   0  0  0  0  0  0  0  0  0  0  0  0
    0.5678    1.1143    0.0000 C   0  0  0  0  0  0  0  0  0  0  0  0
    1.2352    0.6294    0.0000 N   0  0  0  0  0  0  0  0  0  0  0  0
    0.9803   -0.1553    0.0000 C   0  0  0  0  0  0  0  0  0  0  0  0
    0.1553   -0.1553    0.0000 C   0  0  0  0  0  0  0  0  0  0  0  0
   -0.0997    0.6294    0.0000 S   0  0  0  0  0  0  0  0  0  0  0  0
   -0.3297   -0.8227    0.0000 N   0  0  0  0  0  0  0  0  0  0  0  0
    0.0059   -1.5764    0.0000 O   0  0  0  0  0  0  0  0  0  0  0  0
   -1.1501   -0.7365    0.0000 O   0  0  0  0  0  0  0  0  0  0  0  0
  1  2  1  0
  2  3  2  0
  2  4  1  0
  4  5  1  0
  5  6  2  0
  6  7  1  0
  7  8  2  0
  8  9  1  0
  5  9  1  0
  8 10  1  0
 10 11  1  0
 10 12  2  0
M  CHG  2  10   1  11  -1
M  END
>  <DATABASE_ID>  (1) 
DB19371

>  <DATABASE_NAME>  (1) 
drugbank

>  <SMILES>  (1) 
CC(=O)NC1=NC=C(S1)[N+]([O-])=O

>  <INCHI_IDENTIFIER>  (1) 
InChI=1S/C5H5N3O3S/c1-3(9)7-5-6-2-4(12-5)8(10)11/h2H,1H3,(H,6,7,9)

>  <INCHI_KEY>  (1) 
UJRRDDHEMZLWFI-UHFFFAOYSA-N

>  <FORMULA>  (1) 
C5H5N3O3S

>  <MOLECULAR_WEIGHT>  (1) 
187.17

>  <EXACT_MASS>  (1) 
187.005162207

>  <DRUGBANK_ID>  (1) 
DB19371

>  <DRUG_GROUPS>  (1) 
approved; withdrawn

>  <GENERIC_NAME>  (1) 
NITHIAMIDE

>  <SYNONYMS>  (1) 
2-acetamido-5-nitrothiazole; Acetamide, n-(5-nitro-2-thiazolyl)-; Acinitrazole; Aminitrozole; N-(5-nitro-2-thiazolyl)acetamide

$$$$
