691
     RDKit          2D

 36 38  0  0  1  0  0  0  0  0999 V2000
    3.0790    1.5221    0.0000 O   0  0  0  0  0  0  0  0  0  0  0  0
    3.7935    3.5847    0.0000 O   0  0  0  0  0  0  0  0  0  0  0  0
    8.1348    2.7795    0.0000 O   0  0  0  0  0  0  0  0  0  0  0  0
    8.1348    1.0898    0.0000 O   0  0  0  0  0  0  0  0  0  0  0  0
    3.0790    2.3471    0.0000 O   0  0  0  0  0  0  0  0  0  0  0  0
    2.3645   -2.1904    0.0000 O   0  0  0  0  0  0  0  0  0  0  0  0
    1.6500   -0.9529    0.0000 O   0  0  0  0  0  0  0  0  0  0  0  0
    4.5079    1.5221    0.0000 N   0  0  0  0  0  0  0  0  0  0  0  0
    3.0790   -0.1279    0.0000 N   0  0  0  0  0  0  0  0  0  0  0  0
    4.5079    2.3471    0.0000 C   0  0  0  0  0  0  0  0  0  0  0  0
    5.2224    2.7597    0.0000 C   0  0  0  0  0  0  0  0  0  0  0  0
    5.2224    1.1096    0.0000 C   0  0  0  0  0  0  0  0  0  0  0  0
    5.9369    2.3471    0.0000 C   0  0  0  0  0  0  0  0  0  0  0  0
    5.9369    1.5221    0.0000 C   0  0  0  0  0  0  0  0  0  0  0  0
    3.7935    0.2846    0.0000 C   0  0  0  0  0  0  0  0  0  0  0  0
    3.7935    1.1096    0.0000 C   0  0  0  0  0  0  0  0  0  0  0  0
    3.0790   -0.9529    0.0000 C   0  0  0  0  0  0  0  0  0  0  0  0
    6.6744    2.7883    0.0000 C   0  0  0  0  0  0  0  0  0  0  0  0
    3.7935    2.7597    0.0000 C   0  0  0  0  0  0  0  0  0  0  0  0
    6.6744    1.0810    0.0000 C   0  0  0  0  0  0  0  0  0  0  0  0
    3.7935   -1.3654    0.0000 C   0  0  0  0  0  0  0  0  0  0  0  0
    4.5079   -0.1279    0.0000 C   0  0  0  0  0  0  0  0  0  0  0  0
    7.4219    2.3643    0.0000 C   0  0  0  0  0  0  0  0  0  0  0  0
    7.4219    1.5050    0.0000 C   0  0  0  0  0  0  0  0  0  0  0  0
    3.7935   -2.1904    0.0000 C   0  0  0  0  0  0  0  0  0  0  0  0
    2.3645   -1.3654    0.0000 C   0  0  0  0  0  0  0  0  0  0  0  0
    4.5079   -2.6029    0.0000 C   0  0  0  0  0  0  0  0  0  0  0  0
    5.2224   -2.1904    0.0000 C   0  0  0  0  0  0  0  0  0  0  0  0
    4.5079   -3.4279    0.0000 C   0  0  0  0  0  0  0  0  0  0  0  0
    8.1316    3.6045    0.0000 C   0  0  0  0  0  0  0  0  0  0  0  0
    8.1316    0.2647    0.0000 C   0  0  0  0  0  0  0  0  0  0  0  0
    1.6500   -2.6029    0.0000 C   0  0  0  0  0  0  0  0  0  0  0  0
    5.9369   -2.6029    0.0000 C   0  0  0  0  0  0  0  0  0  0  0  0
    5.2224   -3.8404    0.0000 C   0  0  0  0  0  0  0  0  0  0  0  0
    5.9369   -3.4279    0.0000 C   0  0  0  0  0  0  0  0  0  0  0  0
    1.6500   -3.4279    0.0000 C   0  0  0  0  0  0  0  0  0  0  0  0
  1 16  2  0
  2 19  1  0
  3 23  1  0
  3 30  1  0
  4 24  1  0
  4 31  1  0
  5 19  2  0
  6 26  1  0
  6 32  1  0
  7 26  2  0
  8 10  1  0
  8 12  1  0
  8 16  1  0
 15  9  1  0
 17  9  1  0
 10 11  1  0
 10 19  1  6
 11 13  1  0
 12 14  1  0
 13 14  2  0
 13 18  1  0
 14 20  1  0
 15 16  1  0
 15 22  1  6
 17 21  1  1
 17 26  1  0
 18 23  2  0
 20 24  2  0
 21 25  1  0
 23 24  1  0
 25 27  1  0
 27 28  2  0
 27 29  1  0
 28 33  1  0
 29 34  2  0
 32 36  1  0
 33 35  2  0
 34 35  1  0
M  END
>  <DATABASE_ID>  (1) 
DB00691

>  <DATABASE_NAME>  (1) 
drugbank

>  <SMILES>  (1) 
CCOC(=O)[C@H](CCC1=CC=CC=C1)N[C@@H](C)C(=O)N1CC2=CC(OC)=C(OC)C=C2C[C@H]1C(O)=O

>  <INCHI_IDENTIFIER>  (1) 
InChI=1S/C27H34N2O7/c1-5-36-27(33)21(12-11-18-9-7-6-8-10-18)28-17(2)25(30)29-16-20-15-24(35-4)23(34-3)14-19(20)13-22(29)26(31)32/h6-10,14-15,17,21-22,28H,5,11-13,16H2,1-4H3,(H,31,32)/t17-,21-,22-/m0/s1

>  <INCHI_KEY>  (1) 
UWWDHYUMIORJTA-HSQYWUDLSA-N

>  <FORMULA>  (1) 
C27H34N2O7

>  <MOLECULAR_WEIGHT>  (1) 
498.5681

>  <EXACT_MASS>  (1) 
498.236601452

>  <JCHEM_ACCEPTOR_COUNT>  (1) 
7

>  <JCHEM_ATOM_COUNT>  (1) 
70

>  <JCHEM_AVERAGE_NEUTRAL_MICROSPECIES_CHARGE>  (1) 
-0.9845488726776784

>  <JCHEM_AVERAGE_POLARIZABILITY>  (1) 
53.5540929125327

>  <JCHEM_BIOAVAILABILITY>  (1) 
1

>  <JCHEM_DONOR_COUNT>  (1) 
2

>  <JCHEM_FORMAL_CHARGE>  (1) 
0

>  <JCHEM_GHOSE_FILTER>  (1) 
0

>  <JCHEM_IUPAC>  (1) 
(3S)-2-[(2S)-2-{[(2S)-1-ethoxy-1-oxo-4-phenylbutan-2-yl]amino}propanoyl]-6,7-dimethoxy-1,2,3,4-tetrahydroisoquinoline-3-carboxylic acid

>  <ALOGPS_LOGP>  (1) 
1.52

>  <JCHEM_LOGP>  (1) 
1.5021216796848502

>  <ALOGPS_LOGS>  (1) 
-4.93

>  <JCHEM_MDDR_LIKE_RULE>  (1) 
1

>  <JCHEM_NEUTRAL_CHARGE>  (1) 
-1

>  <JCHEM_NUMBER_OF_RINGS>  (1) 
3

>  <JCHEM_PHYSIOLOGICAL_CHARGE>  (1) 
-1

>  <JCHEM_PKA_STRONGEST_ACIDIC>  (1) 
3.462317868464526

>  <JCHEM_PKA_STRONGEST_BASIC>  (1) 
5.195653535338285

>  <JCHEM_POLAR_SURFACE_AREA>  (1) 
114.40000000000002

>  <JCHEM_REFRACTIVITY>  (1) 
132.88219999999998

>  <JCHEM_ROTATABLE_BOND_COUNT>  (1) 
12

>  <JCHEM_RULE_OF_FIVE>  (1) 
1

>  <ALOGPS_SOLUBILITY>  (1) 
5.85e-03 g/l

>  <JCHEM_TRADITIONAL_IUPAC>  (1) 
tetrahydrofolic acid

>  <JCHEM_VEBER_RULE>  (1) 
0

>  <DRUGBANK_ID>  (1) 
DB00691

>  <SECONDARY_ACCESSION_NUMBERS>  (1) 
APRD01120

>  <DRUG_GROUPS>  (1) 
approved; investigational

>  <GENERIC_NAME>  (1) 
Moexipril

>  <SYNONYMS>  (1) 
Moexipril; Moexiprilum

>  <PRODUCTS>  (1) 
Moexipril Hydrochloride; Moexipril Hydrochloride and Hydrochlorothiazide; Moexipril hydrochloride; Moexipril hydrochloride/hydrochlorothiazide; Uniretic; Univasc

>  <SALTS>  (1) 
Moexipril Hydrochloride

$$$$
