228
     RDKit          2D

 10  9  0  0  1  0  0  0  0  0999 V2000
    5.2224   -0.2615    0.0000 Cl  0  0  0  0  0  0  0  0  0  0  0  0
    3.3810    0.4529    0.0000 F   0  0  0  0  0  0  0  0  0  0  0  0
    4.2060   -0.9760    0.0000 F   0  0  0  0  0  0  0  0  0  0  0  0
    4.5080    0.9760    0.0000 F   0  0  0  0  0  0  0  0  0  0  0  0
    1.6500   -0.6740    0.0000 F   0  0  0  0  0  0  0  0  0  0  0  0
    2.3645    0.5635    0.0000 F   0  0  0  0  0  0  0  0  0  0  0  0
    3.0791   -0.6740    0.0000 O   0  0  0  0  0  0  0  0  0  0  0  0
    3.7935   -0.2615    0.0000 C   0  0  0  0  0  0  0  0  0  0  0  0
    4.5080    0.1510    0.0000 C   0  0  0  0  0  0  0  0  0  0  0  0
    2.3645   -0.2615    0.0000 C   0  0  0  0  0  0  0  0  0  0  0  0
  1  9  1  0
  2  8  1  0
  3  8  1  0
  4  9  1  0
  5 10  1  0
  6 10  1  0
  7  8  1  0
  7 10  1  0
  8  9  1  0
M  END
>  <DATABASE_ID>  (1) 
DB00228

>  <DATABASE_NAME>  (1) 
drugbank

>  <SMILES>  (1) 
FC(F)OC(F)(F)C(F)Cl

>  <INCHI_IDENTIFIER>  (1) 
InChI=1S/C3H2ClF5O/c4-1(5)3(8,9)10-2(6)7/h1-2H

>  <INCHI_KEY>  (1) 
JPGQOUSTVILISH-UHFFFAOYSA-N

>  <FORMULA>  (1) 
C3H2ClF5O

>  <MOLECULAR_WEIGHT>  (1) 
184.492

>  <EXACT_MASS>  (1) 
183.971433418

>  <JCHEM_ACCEPTOR_COUNT>  (1) 
1

>  <JCHEM_ATOM_COUNT>  (1) 
12

>  <JCHEM_AVERAGE_NEUTRAL_MICROSPECIES_CHARGE>  (1) 
1.0491252985401293e-12

>  <JCHEM_AVERAGE_POLARIZABILITY>  (1) 
9.743590662177029

>  <JCHEM_BIOAVAILABILITY>  (1) 
1

>  <JCHEM_DONOR_COUNT>  (1) 
0

>  <JCHEM_FORMAL_CHARGE>  (1) 
0

>  <JCHEM_GHOSE_FILTER>  (1) 
0

>  <JCHEM_IUPAC>  (1) 
2-chloro-1-(difluoromethoxy)-1,1,2-trifluoroethane

>  <ALOGPS_LOGP>  (1) 
2.24

>  <JCHEM_LOGP>  (1) 
2.7992093016666666

>  <ALOGPS_LOGS>  (1) 
-1.67

>  <JCHEM_MDDR_LIKE_RULE>  (1) 
0

>  <JCHEM_NEUTRAL_CHARGE>  (1) 
0

>  <JCHEM_NUMBER_OF_RINGS>  (1) 
0

>  <JCHEM_PHYSIOLOGICAL_CHARGE>  (1) 
0

>  <JCHEM_PKA_STRONGEST_BASIC>  (1) 
-4.979172640295099

>  <JCHEM_POLAR_SURFACE_AREA>  (1) 
9.23

>  <JCHEM_REFRACTIVITY>  (1) 
23.065399999999997

>  <JCHEM_ROTATABLE_BOND_COUNT>  (1) 
3

>  <JCHEM_RULE_OF_FIVE>  (1) 
1

>  <ALOGPS_SOLUBILITY>  (1) 
3.90e+00 g/l

>  <JCHEM_TRADITIONAL_IUPAC>  (1) 
biotin

>  <JCHEM_VEBER_RULE>  (1) 
1

>  <DRUGBANK_ID>  (1) 
DB00228

>  <SECONDARY_ACCESSION_NUMBERS>  (1) 
APRD00234

>  <DRUG_GROUPS>  (1) 
approved; vet_approved; withdrawn

>  <GENERIC_NAME>  (1) 
Enflurane

>  <SYNONYMS>  (1) 
2-chloro-1,1,2-trifluoroethyl difluoromethyl ether; Alyrane; Efrane; Enflurane; Enflurano; Enfluranum; Methylflurether

>  <PRODUCTS>  (1) 
Enflurane; Ethrane; Ethrane Liq Inh; Ethrane Liquid Inh

>  <INTERNATIONAL_BRANDS>  (1) 
Alyrane; Compound 347; Endurane; Enfluran

$$$$
