
     RDKit          2D

 17 19  0  0  0  0  0  0  0  0999 V2000
   28.6022  -19.1936    0.0000 O   0  0  0  0  0  0  0  0  0  0  0  0
   28.6022  -21.6684    0.0000 O   0  0  0  0  0  0  0  0  0  0  0  0
   27.8878  -19.6060    0.0000 C   0  0  0  0  0  0  0  0  0  0  0  0
   29.3165  -19.6060    0.0000 C   0  0  0  0  0  0  0  0  0  0  0  0
   28.6022  -20.8435    0.0000 C   0  0  0  0  0  0  0  0  0  0  0  0
   27.1735  -19.1936    0.0000 C   0  0  0  0  0  0  0  0  0  0  0  0
   29.3165  -20.4310    0.0000 C   0  0  0  0  0  0  0  0  0  0  0  0
   27.8878  -20.4310    0.0000 C   0  0  0  0  0  0  0  0  0  0  0  0
   30.0541  -19.1650    0.0000 C   0  0  0  0  0  0  0  0  0  0  0  0
   26.4590  -19.6060    0.0000 C   0  0  0  0  0  0  0  0  0  0  0  0
   27.1735  -18.3687    0.0000 C   0  0  0  0  0  0  0  0  0  0  0  0
   30.0541  -20.8721    0.0000 C   0  0  0  0  0  0  0  0  0  0  0  0
   30.8014  -19.5889    0.0000 C   0  0  0  0  0  0  0  0  0  0  0  0
   25.7447  -19.1936    0.0000 C   0  0  0  0  0  0  0  0  0  0  0  0
   26.4590  -17.9562    0.0000 C   0  0  0  0  0  0  0  0  0  0  0  0
   30.8014  -20.4481    0.0000 C   0  0  0  0  0  0  0  0  0  0  0  0
   25.7447  -18.3687    0.0000 C   0  0  0  0  0  0  0  0  0  0  0  0
  1  3  1  0
  1  4  1  0
  2  5  2  0
  3  6  1  0
  3  8  2  0
  4  7  2  0
  4  9  1  0
  5  7  1  0
  5  8  1  0
  6 10  2  0
  6 11  1  0
  7 12  1  0
  9 13  2  0
 10 14  1  0
 11 15  2  0
 12 16  2  0
 13 16  1  0
 14 17  2  0
 15 17  1  0
M  END
>  <DATABASE_ID>  (1) 
DB07776

>  <DATABASE_NAME>  (1) 
drugbank

>  <SMILES>  (1) 
O=C1C=C(OC2=CC=CC=C12)C1=CC=CC=C1

>  <INCHI_IDENTIFIER>  (1) 
InChI=1S/C15H10O2/c16-13-10-15(11-6-2-1-3-7-11)17-14-9-5-4-8-12(13)14/h1-10H

>  <INCHI_KEY>  (1) 
VHBFFQKBGNRLFZ-UHFFFAOYSA-N

>  <FORMULA>  (1) 
C15H10O2

>  <MOLECULAR_WEIGHT>  (1) 
222.2387

>  <EXACT_MASS>  (1) 
222.068079564

>  <JCHEM_ACCEPTOR_COUNT>  (1) 
2

>  <JCHEM_ATOM_COUNT>  (1) 
27

>  <JCHEM_AVERAGE_NEUTRAL_MICROSPECIES_CHARGE>  (1) 
0.0

>  <JCHEM_AVERAGE_POLARIZABILITY>  (1) 
23.7909696045717

>  <JCHEM_BIOAVAILABILITY>  (1) 
1

>  <JCHEM_DONOR_COUNT>  (1) 
0

>  <JCHEM_FORMAL_CHARGE>  (1) 
0

>  <JCHEM_GHOSE_FILTER>  (1) 
1

>  <JCHEM_IUPAC>  (1) 
2-phenyl-4H-chromen-4-one

>  <ALOGPS_LOGP>  (1) 
3.54

>  <JCHEM_LOGP>  (1) 
2.9673850986666666

>  <ALOGPS_LOGS>  (1) 
-4.43

>  <JCHEM_MDDR_LIKE_RULE>  (1) 
0

>  <JCHEM_NEUTRAL_CHARGE>  (1) 
0

>  <JCHEM_NUMBER_OF_RINGS>  (1) 
3

>  <JCHEM_PHYSIOLOGICAL_CHARGE>  (1) 
0

>  <JCHEM_PKA_STRONGEST_BASIC>  (1) 
-5.361353235038947

>  <JCHEM_POLAR_SURFACE_AREA>  (1) 
26.3

>  <JCHEM_REFRACTIVITY>  (1) 
66.97120000000002

>  <JCHEM_ROTATABLE_BOND_COUNT>  (1) 
1

>  <JCHEM_RULE_OF_FIVE>  (1) 
1

>  <ALOGPS_SOLUBILITY>  (1) 
8.19e-03 g/l

>  <JCHEM_TRADITIONAL_IUPAC>  (1) 
biotin

>  <JCHEM_VEBER_RULE>  (1) 
1

>  <DRUGBANK_ID>  (1) 
DB07776

>  <SECONDARY_ACCESSION_NUMBERS>  (1) 
DB11139

>  <DRUG_GROUPS>  (1) 
approved; investigational

>  <GENERIC_NAME>  (1) 
Flavone

>  <SYNONYMS>  (1) 
2-Phenyl-4-benzopyron; 2-Phenyl-4-chromone; 2-phenyl-4H-1-benzopyran-4-one; 2-phenyl-4H-benzopyran-4-one; 2-phenyl-γ-benzopyrone; 2-Phenylbenzopyran-4-one; 2-phenylchromone; Flavon; Flavone

>  <PRODUCTS>  (1) 
Bacmin

$$$$
