
     RDKit          2D

  5  4  0  0  0  0  0  0  0  0999 V2000
    4.2363   -0.0495    0.0000 O   0  0  0  0  0  0  0  0  0  0  0  0
    2.8074   -0.8745    0.0000 O   0  0  0  0  0  0  0  0  0  0  0  0
    3.5219    0.3630    0.0000 N   0  0  0  0  0  0  0  0  0  0  0  0
    2.0929    0.3630    0.0000 N   0  0  0  0  0  0  0  0  0  0  0  0
    2.8074   -0.0495    0.0000 C   0  0  0  0  0  0  0  0  0  0  0  0
  1  3  1  0
  2  5  2  0
  3  5  1  0
  4  5  1  0
M  END
>  <DATABASE_ID>  (1) 
DB01005

>  <DATABASE_NAME>  (1) 
drugbank

>  <SMILES>  (1) 
NC(=O)NO

>  <INCHI_IDENTIFIER>  (1) 
InChI=1S/CH4N2O2/c2-1(4)3-5/h5H,(H3,2,3,4)

>  <INCHI_KEY>  (1) 
VSNHCAURESNICA-UHFFFAOYSA-N

>  <FORMULA>  (1) 
CH4N2O2

>  <MOLECULAR_WEIGHT>  (1) 
76.0547

>  <EXACT_MASS>  (1) 
76.027277382

>  <JCHEM_ACCEPTOR_COUNT>  (1) 
2

>  <JCHEM_ATOM_COUNT>  (1) 
9

>  <JCHEM_AVERAGE_NEUTRAL_MICROSPECIES_CHARGE>  (1) 
-0.0007232319717058449

>  <JCHEM_AVERAGE_POLARIZABILITY>  (1) 
5.944994473281037

>  <JCHEM_BIOAVAILABILITY>  (1) 
1

>  <JCHEM_DONOR_COUNT>  (1) 
3

>  <JCHEM_FORMAL_CHARGE>  (1) 
0

>  <JCHEM_GHOSE_FILTER>  (1) 
0

>  <JCHEM_IUPAC>  (1) 
hydroxyurea

>  <ALOGPS_LOGP>  (1) 
-1.83

>  <JCHEM_LOGP>  (1) 
-1.3670155889999998

>  <ALOGPS_LOGS>  (1) 
0.55

>  <JCHEM_MDDR_LIKE_RULE>  (1) 
0

>  <JCHEM_NEUTRAL_CHARGE>  (1) 
0

>  <JCHEM_NUMBER_OF_RINGS>  (1) 
0

>  <JCHEM_PHYSIOLOGICAL_CHARGE>  (1) 
0

>  <JCHEM_PKA>  (1) 
13.960495404519202

>  <JCHEM_PKA_STRONGEST_ACIDIC>  (1) 
10.140479514021132

>  <JCHEM_PKA_STRONGEST_BASIC>  (1) 
-4.909055692225128

>  <JCHEM_POLAR_SURFACE_AREA>  (1) 
75.35

>  <JCHEM_REFRACTIVITY>  (1) 
14.9072

>  <JCHEM_ROTATABLE_BOND_COUNT>  (1) 
0

>  <JCHEM_RULE_OF_FIVE>  (1) 
1

>  <ALOGPS_SOLUBILITY>  (1) 
2.69e+02 g/l

>  <JCHEM_TRADITIONAL_IUPAC>  (1) 
tetrahydrofolic acid

>  <JCHEM_VEBER_RULE>  (1) 
0

>  <DRUGBANK_ID>  (1) 
DB01005

>  <SECONDARY_ACCESSION_NUMBERS>  (1) 
APRD00023

>  <DRUG_GROUPS>  (1) 
approved; investigational

>  <GENERIC_NAME>  (1) 
Hydroxyurea

>  <SYNONYMS>  (1) 
Carbamohydroxamic acid; Carbamohydroximic acid; Carbamoyl oxime; Carbamyl hydroxamate; Hidroxicarbamida; Hydrea; Hydroxy Urea; Hydroxycarbamid; Hydroxycarbamide; Hydroxycarbamidum; Hydroxyharnstoff; Hydroxyurea; N-Carbamoylhydroxylamine; N-Hydroxyurea; Oxyurea

>  <PRODUCTS>  (1) 
Apo-hydroxyurea; Droxia; Eugia-hydroxyurea; Hydrea; Hydroxyurea; Mylan-hydroxyurea; Riva-hydroxyurea; Siklos; Xromi

>  <INTERNATIONAL_BRANDS>  (1) 
Litalir; Onco-Carbide

$$$$
