
     RDKit          2D

  7  4  0  0  0  0  0  0  0  0999 V2000
    1.9384   -0.8246    0.0000 O   0  0  0  0  0  0  0  0  0  0  0  0
    1.9384   -0.0004    0.0000 P   0  0  0  0  0  0  0  0  0  0  0  0
    2.7634   -0.0004    0.0000 O   0  0  0  0  0  0  0  0  0  0  0  0
    1.1134   -0.0004    0.0000 O   0  0  0  0  0  0  0  0  0  0  0  0
    1.9384    0.8246    0.0000 O   0  0  0  0  0  0  0  0  0  0  0  0
   -1.0309   -0.1646    0.0000 Na  0  0  0  0  0 15  0  0  0  0  0  0
   -2.7634   -0.1646    0.0000 Na  0  0  0  0  0 15  0  0  0  0  0  0
  1  2  2  0
  2  3  1  0
  2  4  1  0
  2  5  1  0
M  CHG  4   3  -1   5  -1   6   1   7   1
M  END
>  <DATABASE_ID>  (1) 
DB14502

>  <DATABASE_NAME>  (1) 
drugbank

>  <SMILES>  (1) 
[Na+].[Na+].OP([O-])([O-])=O

>  <INCHI_IDENTIFIER>  (1) 
InChI=1S/2Na.H3O4P/c;;1-5(2,3)4/h;;(H3,1,2,3,4)/q2*+1;/p-2

>  <INCHI_KEY>  (1) 
BNIILDVGGAEEIG-UHFFFAOYSA-L

>  <FORMULA>  (1) 
HNa2O4P

>  <MOLECULAR_WEIGHT>  (1) 
141.9588

>  <EXACT_MASS>  (1) 
141.940784382

>  <JCHEM_ACCEPTOR_COUNT>  (1) 
4

>  <JCHEM_ATOM_COUNT>  (1) 
8

>  <JCHEM_AVERAGE_POLARIZABILITY>  (1) 
5.24161145895349

>  <JCHEM_BIOAVAILABILITY>  (1) 
1

>  <JCHEM_DONOR_COUNT>  (1) 
1

>  <JCHEM_FORMAL_CHARGE>  (1) 
0

>  <JCHEM_GHOSE_FILTER>  (1) 
0

>  <JCHEM_IUPAC>  (1) 
disodium hydrogen phosphate

>  <JCHEM_LOGP>  (1) 
-1.0201038226666665

>  <JCHEM_MDDR_LIKE_RULE>  (1) 
0

>  <JCHEM_NUMBER_OF_RINGS>  (1) 
0

>  <JCHEM_PHYSIOLOGICAL_CHARGE>  (1) 
-2

>  <JCHEM_PKA>  (1) 
6.951626889535468

>  <JCHEM_PKA_STRONGEST_ACIDIC>  (1) 
1.7961261340181318

>  <JCHEM_POLAR_SURFACE_AREA>  (1) 
83.42

>  <JCHEM_REFRACTIVITY>  (1) 
12.4085

>  <JCHEM_ROTATABLE_BOND_COUNT>  (1) 
0

>  <JCHEM_RULE_OF_FIVE>  (1) 
1

>  <JCHEM_TRADITIONAL_IUPAC>  (1) 
Na2HPO4

>  <JCHEM_VEBER_RULE>  (1) 
0

>  <DRUGBANK_ID>  (1) 
DB14502

>  <SECONDARY_ACCESSION_NUMBERS>  (1) 
DBSALT001976

>  <DRUG_GROUPS>  (1) 
approved; investigational

>  <GENERIC_NAME>  (1) 
Sodium phosphate, dibasic

>  <SYNONYMS>  (1) 
Dibasic sodium phosphate anhydrous; Dibasic sodium phosphate, anhydrous; Disodium acid phosphate; Disodium hydrogen monophosphate; Disodium hydrogen phosphate; Disodium hydrogen phosphate, anhydrous; disodium hydrogenphosphate; Disodium phosphate; Phosphoric acid, disodium salt, anhydrous; Phosphoric acid, sodium salt (1:2); Sodium phosphate dibasic; Sodium phosphate, dibasic; Sodium phosphate, dibasic (anhydrous); Sodium phosphate, dibasic anhydrous; Sodium phosphate, dibasic, anhydrous; Sodium phosphate,dibasic,anhydrous

>  <PRODUCTS>  (1) 
Aminosyn II 7% M In 10% Dextrose(dual Chamber); Aminosyn II 8.5% M In 20% Dextrose (dual Chamber); Aminosyn II and Dextrose; Amo Endosol Extra; Av-Phos 250 Neutral; Bss Plus; Dibasic Sodium Phosphate, Monobasic Potassium Phosphate and Monobasic Sodium Phosphate; Eyesaline Eyewash; Fleet; Fleet for Children; Fucidin Leo Injection Kit; Gent-L-tip Phosphate Enema; Glycerolyte 57 Solution; Heparin Sodium In 0.9% Sodium Chloride Injection; Heparin Sodium In 5% Dextrose Injection, 25000unit/500ml; Isolyte S Ph 7.4 (multi-electrolyte Injection); K Phos Neutral; Moi-stir Oral Swabsticks; Moi-stir Spray; Monobasic Sodium Phosphate and Dibasic Sodium Phosphate; Navstel; Neutralite Liq; Normo Gastryl; OsmoPrep; PMS-phosphates Solution; Pedia-Lax; Phospha 250 Neutral; Phospho-Trin 250 Neutral; Phospho-soda Buffered Saline Laxative; Relief; Sodium Phosphates; Sodium Phosphates Injection USP; Solution Saline Sterile Aux Phosphates; Ssp+; Super Charged Energy; Tis-U-Sol; Tis-U-sol; Tis-U-sol Solution; Virt Phos 250 Neutral; Virt-Phos 250 Neutral; Visicol

>  <SALTS>  (1) 
Sodium phosphate, dibasic dihydrate; Sodium phosphate, dibasic dodecahydrate; Sodium phosphate, dibasic, heptahydrate; Sodium phosphate, dibasic, monohydrate

$$$$
