
     RDKit          2D

 11 11  0  0  0  0  0  0  0  0999 V2000
   -0.3572   -0.2062    0.0000 C   0  0  0  0  0  0  0  0  0  0  0  0
    0.3572   -0.6187    0.0000 C   0  0  0  0  0  0  0  0  0  0  0  0
    0.3572   -1.4437    0.0000 C   0  0  0  0  0  0  0  0  0  0  0  0
   -0.3572   -1.8562    0.0000 C   0  0  0  0  0  0  0  0  0  0  0  0
   -1.0717   -1.4437    0.0000 C   0  0  0  0  0  0  0  0  0  0  0  0
   -1.0717   -0.6187    0.0000 C   0  0  0  0  0  0  0  0  0  0  0  0
    1.0717   -1.8562    0.0000 O   0  0  0  0  0  0  0  0  0  0  0  0
   -0.3572    0.6187    0.0000 O   0  0  0  0  0  0  0  0  0  0  0  0
    0.3572    1.0312    0.0000 C   0  0  0  0  0  0  0  0  0  0  0  0
    0.3572    1.8562    0.0000 C   0  0  0  0  0  0  0  0  0  0  0  0
    1.0717    0.6187    0.0000 O   0  0  0  0  0  0  0  0  0  0  0  0
  1  2  2  0
  2  3  1  0
  3  4  2  0
  4  5  1  0
  5  6  2  0
  1  6  1  0
  3  7  1  0
  1  8  1  0
  8  9  1  0
  9 10  1  0
  9 11  2  0
M  END
>  <DATABASE_ID>  (1) 
DB15480

>  <DATABASE_NAME>  (1) 
drugbank

>  <SMILES>  (1) 
CC(=O)OC1=CC(O)=CC=C1

>  <INCHI_IDENTIFIER>  (1) 
InChI=1S/C8H8O3/c1-6(9)11-8-4-2-3-7(10)5-8/h2-5,10H,1H3

>  <INCHI_KEY>  (1) 
ZZPKZRHERLGEKA-UHFFFAOYSA-N

>  <FORMULA>  (1) 
C8H8O3

>  <MOLECULAR_WEIGHT>  (1) 
152.149

>  <EXACT_MASS>  (1) 
152.047344118

>  <JCHEM_ACCEPTOR_COUNT>  (1) 
2

>  <JCHEM_ATOM_COUNT>  (1) 
19

>  <JCHEM_AVERAGE_POLARIZABILITY>  (1) 
15.037026129716311

>  <JCHEM_BIOAVAILABILITY>  (1) 
1

>  <JCHEM_DONOR_COUNT>  (1) 
1

>  <JCHEM_FORMAL_CHARGE>  (1) 
0

>  <JCHEM_GHOSE_FILTER>  (1) 
0

>  <JCHEM_IUPAC>  (1) 
3-hydroxyphenyl acetate

>  <ALOGPS_LOGP>  (1) 
1.78

>  <JCHEM_LOGP>  (1) 
1.2769414686666662

>  <ALOGPS_LOGS>  (1) 
-1.66

>  <JCHEM_MDDR_LIKE_RULE>  (1) 
0

>  <JCHEM_NUMBER_OF_RINGS>  (1) 
1

>  <JCHEM_PHYSIOLOGICAL_CHARGE>  (1) 
0

>  <JCHEM_PKA_STRONGEST_ACIDIC>  (1) 
9.03077102130974

>  <JCHEM_PKA_STRONGEST_BASIC>  (1) 
-6.020264009117055

>  <JCHEM_POLAR_SURFACE_AREA>  (1) 
46.53

>  <JCHEM_REFRACTIVITY>  (1) 
39.1713

>  <JCHEM_ROTATABLE_BOND_COUNT>  (1) 
2

>  <JCHEM_RULE_OF_FIVE>  (1) 
1

>  <ALOGPS_SOLUBILITY>  (1) 
3.34e+00 g/l

>  <JCHEM_TRADITIONAL_IUPAC>  (1) 
sodium taurocholate

>  <JCHEM_VEBER_RULE>  (1) 
0

>  <DRUGBANK_ID>  (1) 
DB15480

>  <DRUG_GROUPS>  (1) 
approved; withdrawn

>  <GENERIC_NAME>  (1) 
Resorcinol monoacetate

>  <SYNONYMS>  (1) 
Resorcinol acetate; Resorcinol monoacetate

>  <PRODUCTS>  (1) 
Thomas Formula No 28

>  <INTERNATIONAL_BRANDS>  (1) 
Euresol

$$$$
