
     RDKit          2D

 31 34  0  0  1  0  0  0  0  0999 V2000
    4.7592    2.6909    0.0000 H   0  0  0  0  0  0  0  0  0  0  0  0
    5.4093    3.1988    0.0000 C   0  0  0  0  0  0  0  0  0  0  0  0
    5.4669    2.3758    0.0000 H   0  0  0  0  0  0  0  0  0  0  0  0
    4.9968    3.9132    0.0000 C   0  0  0  0  0  0  0  0  0  0  0  0
    4.1764    3.9995    0.0000 C   0  0  0  0  0  0  0  0  0  0  0  0
    3.8408    4.7532    0.0000 C   0  0  0  0  0  0  0  0  0  0  0  0
    4.3257    5.4206    0.0000 C   0  0  0  0  0  0  0  0  0  0  0  0
    4.8106    6.0880    0.0000 N   0  0  0  0  0  0  0  0  0  0  0  0
    3.6914    3.3320    0.0000 N   0  0  0  0  0  0  0  0  0  0  0  0
    3.9464    2.5474    0.0000 C   0  0  0  0  0  0  0  0  0  0  0  0
    3.2789    2.0625    0.0000 C   0  0  0  0  0  0  0  0  0  0  0  0
    2.6115    2.5474    0.0000 C   0  0  0  0  0  0  0  0  0  0  0  0
    2.8664    3.3320    0.0000 N   0  0  0  0  0  0  0  0  0  0  0  0
    3.2789    1.2375    0.0000 C   0  0  0  0  0  0  0  0  0  0  0  0
    3.9934    0.8250    0.0000 N   0  0  0  0  0  0  0  0  0  0  0  0
    3.9934    0.0000    0.0000 C   0  0  0  0  0  0  0  0  0  0  0  0
    3.2789   -0.4125    0.0000 N   0  0  0  0  0  0  0  0  0  0  0  0
    2.5645    0.0000    0.0000 C   0  0  0  0  0  0  0  0  0  0  0  0
    1.7798   -0.2549    0.0000 N   0  0  0  0  0  0  0  0  0  0  0  0
    1.2949    0.4125    0.0000 C   0  0  0  0  0  0  0  0  0  0  0  0
    1.7798    1.0799    0.0000 C   0  0  0  0  0  0  0  0  0  0  0  0
    2.5645    0.8250    0.0000 C   0  0  0  0  0  0  0  0  0  0  0  0
    5.5489    4.5263    0.0000 C   0  0  0  0  0  0  0  0  0  0  0  0
    5.7763    5.3194    0.0000 H   0  0  0  0  0  0  0  0  0  0  0  0
    5.0186    5.1583    0.0000 H   0  0  0  0  0  0  0  0  0  0  0  0
    6.3025    4.1908    0.0000 C   0  0  0  0  0  0  0  0  0  0  0  0
    7.1270    4.2196    0.0000 H   0  0  0  0  0  0  0  0  0  0  0  0
    6.7397    4.8904    0.0000 H   0  0  0  0  0  0  0  0  0  0  0  0
    6.2163    3.3703    0.0000 C   0  0  0  0  0  0  0  0  0  0  0  0
    6.4985    2.5951    0.0000 H   0  0  0  0  0  0  0  0  0  0  0  0
    7.0168    3.1707    0.0000 H   0  0  0  0  0  0  0  0  0  0  0  0
  1  2  1  0
  2  3  1  0
  2  4  1  0
  5  4  1  0
  5  6  1  6
  6  7  1  0
  7  8  3  0
  5  9  1  0
  9 10  1  0
 10 11  2  0
 11 12  1  0
 12 13  2  0
  9 13  1  0
 11 14  1  0
 14 15  2  0
 15 16  1  0
 16 17  2  0
 17 18  1  0
 18 19  1  0
 19 20  1  0
 20 21  2  0
 21 22  1  0
 14 22  1  0
 18 22  2  0
  4 23  1  0
 23 24  1  0
 23 25  1  0
 23 26  1  0
 26 27  1  0
 26 28  1  0
 26 29  1  0
  2 29  1  0
 29 30  1  0
 29 31  1  0
M  ISO  8   1   2   3   2  24   2  25   2  27   2  28   2  30   2  31   2
M  END
>  <DATABASE_ID>  (1) 
DB18847

>  <DATABASE_NAME>  (1) 
drugbank

>  <SMILES>  (1) 
[2H]C1([2H])C([C@@H](CC#N)N2C=C(C=N2)C2=C3C=CNC3=NC=N2)C([2H])([2H])C([2H])([2H])C1([2H])[2H]

>  <INCHI_IDENTIFIER>  (1) 
InChI=1S/C17H18N6/c18-7-5-15(12-3-1-2-4-12)23-10-13(9-22-23)16-14-6-8-19-17(14)21-11-20-16/h6,8-12,15H,1-5H2,(H,19,20,21)/t15-/m1/s1/i1D2,2D2,3D2,4D2

>  <INCHI_KEY>  (1) 
HFNKQEVNSGCOJV-FBXGHSCESA-N

>  <FORMULA>  (1) 
C17H18N6

>  <MOLECULAR_WEIGHT>  (1) 
314.422

>  <EXACT_MASS>  (1) 
314.209508571

>  <DRUGBANK_ID>  (1) 
DB18847

>  <DRUG_GROUPS>  (1) 
approved; investigational

>  <GENERIC_NAME>  (1) 
Deuruxolitinib

>  <SYNONYMS>  (1) 
(3r)-3-(2,2,3,3,4,4,5,5-d8)cyclopentyl-3-(4-(7h-pyrrolo(2,3-d)pyrimidin-4-yl)-1h-pyrazol-1-yl)propanenitrile; 1h-pyrazole-1-propanenitrile, .beta.-(cyclopentyl-2,2,3,3,4,4,5,5-d8)-4-(7h-pyrrolo(2,3-d)pyrimidin-4-yl)-, (.beta.r)-; D8-ruxolitinib; Deuruxolitinib

>  <PRODUCTS>  (1) 
Leqselvi

>  <SALTS>  (1) 
Deuruxolitinib phosphate

$$$$
