1595
     RDKit          2D

 21 23  0  0  0  0  0  0  0  0999 V2000
    2.3403    2.5929    0.0000 O   0  0  0  0  0  0  0  0  0  0  0  0
    1.8668   -2.5929    0.0000 O   0  0  0  0  0  0  0  0  0  0  0  0
    3.2913   -2.4806    0.0000 O   0  0  0  0  0  0  0  0  0  0  0  0
    2.1839    1.2046    0.0000 N   0  0  0  0  0  0  0  0  0  0  0  0
    4.0375    1.2046    0.0000 N   0  0  0  0  0  0  0  0  0  0  0  0
    2.5467   -2.1255    0.0000 N   0  0  0  0  0  0  0  0  0  0  0  0
    3.1107    0.0423    0.0000 C   0  0  0  0  0  0  0  0  0  0  0  0
    2.3674    0.4003    0.0000 C   0  0  0  0  0  0  0  0  0  0  0  0
    3.8540    0.4003    0.0000 C   0  0  0  0  0  0  0  0  0  0  0  0
    4.4990   -0.1141    0.0000 C   0  0  0  0  0  0  0  0  0  0  0  0
    3.1881   -0.8135    0.0000 C   0  0  0  0  0  0  0  0  0  0  0  0
    1.6500   -0.0728    0.0000 C   0  0  0  0  0  0  0  0  0  0  0  0
    3.5232    1.8496    0.0000 C   0  0  0  0  0  0  0  0  0  0  0  0
    2.4818   -1.3031    0.0000 C   0  0  0  0  0  0  0  0  0  0  0  0
    2.6982    1.8496    0.0000 C   0  0  0  0  0  0  0  0  0  0  0  0
    1.7076   -0.9302    0.0000 C   0  0  0  0  0  0  0  0  0  0  0  0
    5.2670    0.1873    0.0000 C   0  0  0  0  0  0  0  0  0  0  0  0
    4.3760   -0.9299    0.0000 C   0  0  0  0  0  0  0  0  0  0  0  0
    5.9120   -0.3271    0.0000 C   0  0  0  0  0  0  0  0  0  0  0  0
    5.0210   -1.4442    0.0000 C   0  0  0  0  0  0  0  0  0  0  0  0
    5.7890   -1.1429    0.0000 C   0  0  0  0  0  0  0  0  0  0  0  0
  1 15  2  0
  2  6  1  0
  3  6  2  0
  4  8  1  0
  4 15  1  0
  5  9  2  0
  5 13  1  0
  6 14  1  0
  7  8  2  0
  7  9  1  0
  7 11  1  0
  8 12  1  0
  9 10  1  0
 10 17  2  0
 10 18  1  0
 11 14  2  0
 12 16  2  0
 13 15  1  0
 14 16  1  0
 17 19  1  0
 18 20  2  0
 19 21  2  0
 20 21  1  0
M  CHG  2   2  -1   6   1
M  END
>  <DATABASE_ID>  (1) 
DB01595

>  <DATABASE_NAME>  (1) 
drugbank

>  <SMILES>  (1) 
[O-][N+](=O)C1=CC2=C(NC(=O)CN=C2C2=CC=CC=C2)C=C1

>  <INCHI_IDENTIFIER>  (1) 
InChI=1S/C15H11N3O3/c19-14-9-16-15(10-4-2-1-3-5-10)12-8-11(18(20)21)6-7-13(12)17-14/h1-8H,9H2,(H,17,19)

>  <INCHI_KEY>  (1) 
KJONHKAYOJNZEC-UHFFFAOYSA-N

>  <FORMULA>  (1) 
C15H11N3O3

>  <MOLECULAR_WEIGHT>  (1) 
281.2661

>  <EXACT_MASS>  (1) 
281.080041233

>  <JCHEM_ACCEPTOR_COUNT>  (1) 
4

>  <JCHEM_ATOM_COUNT>  (1) 
32

>  <JCHEM_AVERAGE_NEUTRAL_MICROSPECIES_CHARGE>  (1) 
2.273420933981367e-05

>  <JCHEM_AVERAGE_POLARIZABILITY>  (1) 
27.672964280229994

>  <JCHEM_BIOAVAILABILITY>  (1) 
1

>  <JCHEM_DONOR_COUNT>  (1) 
1

>  <JCHEM_FORMAL_CHARGE>  (1) 
0

>  <JCHEM_GHOSE_FILTER>  (1) 
1

>  <JCHEM_IUPAC>  (1) 
7-nitro-5-phenyl-2,3-dihydro-1H-1,4-benzodiazepin-2-one

>  <ALOGPS_LOGP>  (1) 
1.95

>  <JCHEM_LOGP>  (1) 
2.5479600116666665

>  <ALOGPS_LOGS>  (1) 
-3.97

>  <JCHEM_MDDR_LIKE_RULE>  (1) 
0

>  <JCHEM_NEUTRAL_CHARGE>  (1) 
0

>  <JCHEM_NUMBER_OF_RINGS>  (1) 
3

>  <JCHEM_PHYSIOLOGICAL_CHARGE>  (1) 
0

>  <JCHEM_PKA_STRONGEST_ACIDIC>  (1) 
11.658611394121115

>  <JCHEM_PKA_STRONGEST_BASIC>  (1) 
2.6501462430155946

>  <JCHEM_POLAR_SURFACE_AREA>  (1) 
84.6

>  <JCHEM_REFRACTIVITY>  (1) 
78.21170000000004

>  <JCHEM_ROTATABLE_BOND_COUNT>  (1) 
2

>  <JCHEM_RULE_OF_FIVE>  (1) 
1

>  <ALOGPS_SOLUBILITY>  (1) 
2.99e-02 g/l

>  <JCHEM_TRADITIONAL_IUPAC>  (1) 
biotin

>  <JCHEM_VEBER_RULE>  (1) 
0

>  <DRUGBANK_ID>  (1) 
DB01595

>  <DRUG_GROUPS>  (1) 
approved

>  <GENERIC_NAME>  (1) 
Nitrazepam

>  <SYNONYMS>  (1) 
1,3-dihydro-7-nitro-5-phenyl-2H-1,4-benzodiazepin-2-one; 2,3-dihydro-7-nitro-5-phenyl-1H-1,4-benzodiazepin-2-one; 7-nitro-1,3-dihydro-5-phenyl-2H-1,4-benzodiazepin-2-one; 7-nitro-5-phenyl-2,3-dihydro-1H-1,4-benzodiazepin-2-one; N-desmethylnimetazepam; Nitrazépam; Nitrazepam; Nitrazepamum

>  <PRODUCTS>  (1) 
Apo-nitrazepam; Mogadon; Nitrazadon; Nitrazepam-10; Nitrazepam-5; Sandoz Nitrazepam

>  <INTERNATIONAL_BRANDS>  (1) 
Alodorm; Apodorm; Arem; Atempol; Benzalin; Calsmin; Eatan; Eunoctin; Gerson; Hipnax; Hipsal; Ibrovek; Imeson; Imesont; Insoma; Nelbon; Nelmat; Neozepam; Neuchlonic; Nitrados; Nitrosun; Ormodon; Pacisyn; Paxadorm; Paxisyn; Pelson; Persopit; Radedorm; Relact; Remnos; Somitran; Somnite; Sonebon; Sonnolin; Surem; Trazenin; Unisomnia

$$$$
