
     RDKit          2D

  8  3  0  0  0  0  0  0  0  0999 V2000
    0.1375    0.2382    0.0000 C   0  0  0  0  0  0  0  0  0  0  0  0
    0.5500    0.9526    0.0000 O   0  0  0  0  0  0  0  0  0  0  0  0
    0.5500   -0.4763    0.0000 O   0  0  0  0  0  0  0  0  0  0  0  0
   -0.6875    0.2382    0.0000 O   0  0  0  0  0  0  0  0  0  0  0  0
    3.3196    0.0000    0.0000 O   0  0  0  0  0  0  0  0  0  0  0  0
    0.0000   -2.8408    0.0000 O   0  0  0  0  0  0  0  0  0  0  0  0
    0.9625   -1.1908    0.0000 Bi  0  0  0  0  0 15  0  0  0  0  0  0
   -1.5125    0.2382    0.0000 Bi  0  0  0  0  0 15  0  0  0  0  0  0
  1  2  2  0
  1  3  1  0
  1  4  1  0
M  CHG  6   3  -1   4  -1   5  -2   6  -2   7   3   8   3
M  END
>  <DATABASE_ID>  (1) 
DB11281

>  <DATABASE_NAME>  (1) 
drugbank

>  <SMILES>  (1) 
[O--].[O--].[Bi+3].[Bi+3].[O-]C([O-])=O

>  <INCHI_IDENTIFIER>  (1) 
InChI=1S/CH2O3.2Bi.2O/c2-1(3)4;;;;/h(H2,2,3,4);;;;/q;2*+3;2*-2/p-2

>  <INCHI_KEY>  (1) 
FWIZHMQARNODNX-UHFFFAOYSA-L

>  <FORMULA>  (1) 
CBi2O5

>  <MOLECULAR_WEIGHT>  (1) 
509.967

>  <EXACT_MASS>  (1) 
509.93537

>  <JCHEM_ACCEPTOR_COUNT>  (1) 
3

>  <JCHEM_ATOM_COUNT>  (1) 
8

>  <JCHEM_AVERAGE_POLARIZABILITY>  (1) 
3.5154552300033055

>  <JCHEM_BIOAVAILABILITY>  (1) 
1

>  <JCHEM_DONOR_COUNT>  (1) 
0

>  <JCHEM_FORMAL_CHARGE>  (1) 
0

>  <JCHEM_GHOSE_FILTER>  (1) 
0

>  <JCHEM_IUPAC>  (1) 
dibismuth(3+) ion carbonate dioxidandiide

>  <ALOGPS_LOGP>  (1) 
-0.25

>  <JCHEM_LOGP>  (1) 
0.25005136566666664

>  <ALOGPS_LOGS>  (1) 
-0.75

>  <JCHEM_MDDR_LIKE_RULE>  (1) 
0

>  <JCHEM_NUMBER_OF_RINGS>  (1) 
0

>  <JCHEM_PHYSIOLOGICAL_CHARGE>  (1) 
-1

>  <JCHEM_PKA>  (1) 
10.638414228618222

>  <JCHEM_PKA_STRONGEST_ACIDIC>  (1) 
6.052541895520343

>  <JCHEM_POLAR_SURFACE_AREA>  (1) 
63.19

>  <JCHEM_REFRACTIVITY>  (1) 
31.172400000000003

>  <JCHEM_ROTATABLE_BOND_COUNT>  (1) 
0

>  <JCHEM_RULE_OF_FIVE>  (1) 
0

>  <ALOGPS_SOLUBILITY>  (1) 
9.04e+01 g/l

>  <JCHEM_TRADITIONAL_IUPAC>  (1) 
dibismuth(3+) ion carbonate dioxidandiide

>  <JCHEM_VEBER_RULE>  (1) 
0

>  <DRUGBANK_ID>  (1) 
DB11281

>  <DRUG_GROUPS>  (1) 
approved; vet_approved

>  <GENERIC_NAME>  (1) 
Bismuth subcarbonate

>  <SYNONYMS>  (1) 
2,4-Dioxa-1,5-dibismapentane, 1,3,5-trioxo-; Bismuth carbonate; Bismuth oxycarbonate; Bismuth subcarbonate; Bismuthyl carbonate

>  <PRODUCTS>  (1) 
Estomarol; Hemorro-dol Sup; Sha-lem

$$$$
