487
     RDKit          2D

 24 26  0  0  0  0  0  0  0  0999 V2000
    7.1488    1.0653    0.0000 F   0  0  0  0  0  0  0  0  0  0  0  0
    4.2364    1.8704    0.0000 O   0  0  0  0  0  0  0  0  0  0  0  0
    2.0930    0.6329    0.0000 O   0  0  0  0  0  0  0  0  0  0  0  0
    2.8075    1.8704    0.0000 O   0  0  0  0  0  0  0  0  0  0  0  0
    7.1488   -0.6246    0.0000 N   0  0  0  0  0  0  0  0  0  0  0  0
    8.5746   -1.4551    0.0000 N   0  0  0  0  0  0  0  0  0  0  0  0
    4.2364   -0.6046    0.0000 N   0  0  0  0  0  0  0  0  0  0  0  0
    7.1456   -1.4496    0.0000 C   0  0  0  0  0  0  0  0  0  0  0  0
    7.8649   -0.2148    0.0000 C   0  0  0  0  0  0  0  0  0  0  0  0
    7.8585   -1.8648    0.0000 C   0  0  0  0  0  0  0  0  0  0  0  0
    8.5778   -0.6301    0.0000 C   0  0  0  0  0  0  0  0  0  0  0  0
    6.4359   -0.2093    0.0000 C   0  0  0  0  0  0  0  0  0  0  0  0
    4.9509   -0.1921    0.0000 C   0  0  0  0  0  0  0  0  0  0  0  0
    5.6884   -0.6333    0.0000 C   0  0  0  0  0  0  0  0  0  0  0  0
    9.2874   -1.8704    0.0000 C   0  0  0  0  0  0  0  0  0  0  0  0
    6.4359    0.6500    0.0000 C   0  0  0  0  0  0  0  0  0  0  0  0
    4.9509    0.6329    0.0000 C   0  0  0  0  0  0  0  0  0  0  0  0
    5.6884    1.0739    0.0000 C   0  0  0  0  0  0  0  0  0  0  0  0
    4.2364   -1.4297    0.0000 C   0  0  0  0  0  0  0  0  0  0  0  0
    4.2364    1.0454    0.0000 C   0  0  0  0  0  0  0  0  0  0  0  0
    3.5220   -0.1921    0.0000 C   0  0  0  0  0  0  0  0  0  0  0  0
    3.5220    0.6329    0.0000 C   0  0  0  0  0  0  0  0  0  0  0  0
    3.5220   -1.8422    0.0000 C   0  0  0  0  0  0  0  0  0  0  0  0
    2.8075    1.0454    0.0000 C   0  0  0  0  0  0  0  0  0  0  0  0
  1 16  1  0
  2 20  2  0
  3 24  1  0
  4 24  2  0
  5  8  1  0
  5  9  1  0
  5 12  1  0
  6 10  1  0
  6 11  1  0
  6 15  1  0
  7 13  1  0
  7 19  1  0
  7 21  1  0
  8 10  1  0
  9 11  1  0
 12 14  1  0
 12 16  2  0
 13 14  2  0
 13 17  1  0
 16 18  1  0
 17 18  2  0
 17 20  1  0
 19 23  1  0
 20 22  1  0
 21 22  2  0
 22 24  1  0
M  END
>  <DATABASE_ID>  (1) 
DB00487

>  <DATABASE_NAME>  (1) 
drugbank

>  <SMILES>  (1) 
CCN1C=C(C(O)=O)C(=O)C2=CC(F)=C(C=C12)N1CCN(C)CC1

>  <INCHI_IDENTIFIER>  (1) 
InChI=1S/C17H20FN3O3/c1-3-20-10-12(17(23)24)16(22)11-8-13(18)15(9-14(11)20)21-6-4-19(2)5-7-21/h8-10H,3-7H2,1-2H3,(H,23,24)

>  <INCHI_KEY>  (1) 
FHFYDNQZQSQIAI-UHFFFAOYSA-N

>  <FORMULA>  (1) 
C17H20FN3O3

>  <MOLECULAR_WEIGHT>  (1) 
333.3574

>  <EXACT_MASS>  (1) 
333.148869726

>  <JCHEM_ACCEPTOR_COUNT>  (1) 
6

>  <JCHEM_ATOM_COUNT>  (1) 
44

>  <JCHEM_AVERAGE_NEUTRAL_MICROSPECIES_CHARGE>  (1) 
-0.42346399883635416

>  <JCHEM_AVERAGE_POLARIZABILITY>  (1) 
34.424866990486265

>  <JCHEM_BIOAVAILABILITY>  (1) 
1

>  <JCHEM_DONOR_COUNT>  (1) 
1

>  <JCHEM_FORMAL_CHARGE>  (1) 
0

>  <JCHEM_GHOSE_FILTER>  (1) 
1

>  <JCHEM_IUPAC>  (1) 
1-ethyl-6-fluoro-7-(4-methylpiperazin-1-yl)-4-oxo-1,4-dihydroquinoline-3-carboxylic acid

>  <ALOGPS_LOGP>  (1) 
0.20

>  <JCHEM_LOGP>  (1) 
0.262121310530263

>  <ALOGPS_LOGS>  (1) 
-2.43

>  <JCHEM_MDDR_LIKE_RULE>  (1) 
0

>  <JCHEM_NEUTRAL_CHARGE>  (1) 
0

>  <JCHEM_NUMBER_OF_RINGS>  (1) 
3

>  <JCHEM_PHYSIOLOGICAL_CHARGE>  (1) 
-1

>  <JCHEM_PKA_STRONGEST_ACIDIC>  (1) 
5.552766101567743

>  <JCHEM_PKA_STRONGEST_BASIC>  (1) 
7.00535384408004

>  <JCHEM_POLAR_SURFACE_AREA>  (1) 
64.09

>  <JCHEM_REFRACTIVITY>  (1) 
90.77149999999999

>  <JCHEM_ROTATABLE_BOND_COUNT>  (1) 
3

>  <JCHEM_RULE_OF_FIVE>  (1) 
1

>  <ALOGPS_SOLUBILITY>  (1) 
1.23e+00 g/l

>  <JCHEM_TRADITIONAL_IUPAC>  (1) 
biotin

>  <JCHEM_VEBER_RULE>  (1) 
0

>  <DRUGBANK_ID>  (1) 
DB00487

>  <SECONDARY_ACCESSION_NUMBERS>  (1) 
APRD00108

>  <DRUG_GROUPS>  (1) 
approved

>  <GENERIC_NAME>  (1) 
Pefloxacin

>  <SYNONYMS>  (1) 
Pefloxacin; Pefloxacine; Pefloxacino; Pefloxacinum; PFLX

>  <INTERNATIONAL_BRANDS>  (1) 
Labocton

>  <SALTS>  (1) 
Pefloxacin mesylate; Pefloxacin mesylate dihydrate

$$$$
