
     RDKit          2D

 19 20  0  0  0  0  0  0  0  0999 V2000
    2.8578    2.4750    0.0000 C   0  0  0  0  0  0  0  0  0  0  0  0
    1.4289    0.0000    0.0000 C   0  0  0  0  0  0  0  0  0  0  0  0
    1.4289    0.8250    0.0000 C   0  0  0  0  0  0  0  0  0  0  0  0
    4.2868    0.0000    0.0000 C   0  0  0  0  0  0  0  0  0  0  0  0
    4.2868    0.8250    0.0000 C   0  0  0  0  0  0  0  0  0  0  0  0
    2.1434   -2.8875    0.0000 C   0  0  0  0  0  0  0  0  0  0  0  0
    1.4289   -1.6500    0.0000 C   0  0  0  0  0  0  0  0  0  0  0  0
    2.8578   -2.4750    0.0000 C   0  0  0  0  0  0  0  0  0  0  0  0
    2.1434   -1.2375    0.0000 C   0  0  0  0  0  0  0  0  0  0  0  0
    3.5723   -1.2375    0.0000 C   0  0  0  0  0  0  0  0  0  0  0  0
    3.5723   -0.4125    0.0000 C   0  0  0  0  0  0  0  0  0  0  0  0
    3.5723    1.2375    0.0000 C   0  0  0  0  0  0  0  0  0  0  0  0
    2.8578    0.0000    0.0000 C   0  0  0  0  0  0  0  0  0  0  0  0
    2.8578    0.8250    0.0000 C   0  0  0  0  0  0  0  0  0  0  0  0
    1.4289   -2.4750    0.0000 N   0  0  0  0  0  0  0  0  0  0  0  0
    2.8578   -1.6500    0.0000 N   0  0  0  0  0  0  0  0  0  0  0  0
    3.5723    2.0625    0.0000 O   0  0  0  0  0  0  0  0  0  0  0  0
    2.1434   -0.4125    0.0000 O   0  0  0  0  0  0  0  0  0  0  0  0
    2.1434    1.2375    0.0000 O   0  0  0  0  0  0  0  0  0  0  0  0
  5  4  2  0
  8  6  1  0
  9  7  1  0
 11  4  1  0
 11 10  1  0
 12  5  1  0
 13 11  2  0
 14 12  2  0
 14 13  1  0
 15  6  1  0
 15  7  1  0
 17  1  1  0
 17 12  1  0
 18  2  1  0
 18 13  1  0
 19  3  1  0
 19 14  1  0
 16  8  1  0
 16  9  1  0
 16 10  1  0
M  END
>  <DATABASE_ID>  (1) 
DB09069

>  <DATABASE_NAME>  (1) 
drugbank

>  <SMILES>  (1) 
COC1=C(OC)C(OC)=C(CN2CCNCC2)C=C1

>  <INCHI_IDENTIFIER>  (1) 
InChI=1S/C14H22N2O3/c1-17-12-5-4-11(13(18-2)14(12)19-3)10-16-8-6-15-7-9-16/h4-5,15H,6-10H2,1-3H3

>  <INCHI_KEY>  (1) 
UHWVSEOVJBQKBE-UHFFFAOYSA-N

>  <FORMULA>  (1) 
C14H22N2O3

>  <MOLECULAR_WEIGHT>  (1) 
266.341

>  <EXACT_MASS>  (1) 
266.163042576

>  <JCHEM_ACCEPTOR_COUNT>  (1) 
5

>  <JCHEM_ATOM_COUNT>  (1) 
41

>  <JCHEM_AVERAGE_POLARIZABILITY>  (1) 
29.154820146078933

>  <JCHEM_BIOAVAILABILITY>  (1) 
1

>  <JCHEM_DONOR_COUNT>  (1) 
1

>  <JCHEM_FORMAL_CHARGE>  (1) 
0

>  <JCHEM_GHOSE_FILTER>  (1) 
1

>  <JCHEM_IUPAC>  (1) 
1-[(2,3,4-trimethoxyphenyl)methyl]piperazine

>  <ALOGPS_LOGP>  (1) 
0.85

>  <JCHEM_LOGP>  (1) 
0.9057004276666669

>  <ALOGPS_LOGS>  (1) 
-2.55

>  <JCHEM_MDDR_LIKE_RULE>  (1) 
0

>  <JCHEM_NUMBER_OF_RINGS>  (1) 
2

>  <JCHEM_PHYSIOLOGICAL_CHARGE>  (1) 
1

>  <JCHEM_PKA_STRONGEST_BASIC>  (1) 
9.2147612185944

>  <JCHEM_POLAR_SURFACE_AREA>  (1) 
42.96000000000001

>  <JCHEM_REFRACTIVITY>  (1) 
74.74570000000001

>  <JCHEM_ROTATABLE_BOND_COUNT>  (1) 
5

>  <JCHEM_RULE_OF_FIVE>  (1) 
1

>  <ALOGPS_SOLUBILITY>  (1) 
7.54e-01 g/l

>  <JCHEM_TRADITIONAL_IUPAC>  (1) 
trimetazidine

>  <JCHEM_VEBER_RULE>  (1) 
0

>  <DRUGBANK_ID>  (1) 
DB09069

>  <DRUG_GROUPS>  (1) 
approved; investigational

>  <GENERIC_NAME>  (1) 
Trimetazidine

>  <SYNONYMS>  (1) 
1-[2,3,4-trimethoxybenzyl] piperazine dihydrochloride; Trimetazidina; Trimetazidine

>  <INTERNATIONAL_BRANDS>  (1) 
Vastarel MR

>  <SALTS>  (1) 
Trimetazidine dihydrochloride

$$$$
