
     RDKit          2D

 16 15  0  0  0  0  0  0  0  0999 V2000
    4.6184    4.3164    0.0000 C   0  0  0  0  0  0  0  0  0  0  0  0
    4.6184    5.1414    0.0000 C   0  0  0  0  0  0  0  0  0  0  0  0
    5.3329    5.5539    0.0000 O   0  0  0  0  0  0  0  0  0  0  0  0
    3.9039    5.5539    0.0000 O   0  0  0  0  0  0  0  0  0  0  0  0
    3.9039    3.9039    0.0000 S   0  0  0  0  0  0  0  0  0  0  0  0
    3.9039    3.0789    0.0000 C   0  0  0  0  0  0  0  0  0  0  0  0
    3.1895    2.6664    0.0000 S   0  0  0  0  0  0  0  0  0  0  0  0
    3.1895    1.8414    0.0000 C   0  0  0  0  0  0  0  0  0  0  0  0
    2.4750    1.4289    0.0000 C   0  0  0  0  0  0  0  0  0  0  0  0
    2.4750    0.6039    0.0000 O   0  0  0  0  0  0  0  0  0  0  0  0
    1.7605    1.8414    0.0000 O   0  0  0  0  0  0  0  0  0  0  0  0
    4.6184    2.6664    0.0000 S   0  0  0  0  0  0  0  0  0  0  0  0
    4.6184    1.8414    0.0000 C   0  0  0  0  0  0  0  0  0  0  0  0
    5.3329    1.4289    0.0000 C   0  0  0  0  0  0  0  0  0  0  0  0
    6.0474    1.8414    0.0000 O   0  0  0  0  0  0  0  0  0  0  0  0
    5.3329    0.6039    0.0000 O   0  0  0  0  0  0  0  0  0  0  0  0
  1  2  1  0
  2  3  2  0
  2  4  1  0
  1  5  1  0
  5  6  1  0
  6  7  1  0
  7  8  1  0
  8  9  1  0
  9 10  2  0
  9 11  1  0
  6 12  1  0
 12 13  1  0
 13 14  1  0
 14 15  2  0
 14 16  1  0
M  END
>  <DATABASE_ID>  (1) 
DB13267

>  <DATABASE_NAME>  (1) 
drugbank

>  <SMILES>  (1) 
OC(=O)CSC(SCC(O)=O)SCC(O)=O

>  <INCHI_IDENTIFIER>  (1) 
InChI=1S/C7H10O6S3/c8-4(9)1-14-7(15-2-5(10)11)16-3-6(12)13/h7H,1-3H2,(H,8,9)(H,10,11)(H,12,13)

>  <INCHI_KEY>  (1) 
ZBNBQISDCFIEQC-UHFFFAOYSA-N

>  <FORMULA>  (1) 
C7H10O6S3

>  <MOLECULAR_WEIGHT>  (1) 
286.33

>  <EXACT_MASS>  (1) 
285.963951564

>  <JCHEM_ACCEPTOR_COUNT>  (1) 
6

>  <JCHEM_ATOM_COUNT>  (1) 
26

>  <JCHEM_AVERAGE_POLARIZABILITY>  (1) 
26.454132560161533

>  <JCHEM_BIOAVAILABILITY>  (1) 
1

>  <JCHEM_DONOR_COUNT>  (1) 
3

>  <JCHEM_FORMAL_CHARGE>  (1) 
0

>  <JCHEM_GHOSE_FILTER>  (1) 
1

>  <JCHEM_IUPAC>  (1) 
2-({bis[(carboxymethyl)sulfanyl]methyl}sulfanyl)acetic acid

>  <ALOGPS_LOGP>  (1) 
0.02

>  <JCHEM_LOGP>  (1) 
1.1511383149999996

>  <ALOGPS_LOGS>  (1) 
-2.30

>  <JCHEM_MDDR_LIKE_RULE>  (1) 
0

>  <JCHEM_NUMBER_OF_RINGS>  (1) 
0

>  <JCHEM_PHYSIOLOGICAL_CHARGE>  (1) 
-3

>  <JCHEM_PKA>  (1) 
3.7256756445027435

>  <JCHEM_PKA_STRONGEST_ACIDIC>  (1) 
3.1522177138456593

>  <JCHEM_POLAR_SURFACE_AREA>  (1) 
111.89999999999999

>  <JCHEM_REFRACTIVITY>  (1) 
62.1281

>  <JCHEM_ROTATABLE_BOND_COUNT>  (1) 
9

>  <JCHEM_RULE_OF_FIVE>  (1) 
1

>  <ALOGPS_SOLUBILITY>  (1) 
1.44e+00 g/l

>  <JCHEM_TRADITIONAL_IUPAC>  (1) 
ritiometan

>  <JCHEM_VEBER_RULE>  (1) 
0

>  <DRUGBANK_ID>  (1) 
DB13267

>  <DRUG_GROUPS>  (1) 
approved

>  <GENERIC_NAME>  (1) 
Ritiometan

>  <SYNONYMS>  (1) 
Ritiometan

$$$$
