
     RDKit          2D

  8  8  0  0  0  0  0  0  0  0999 V2000
   -1.0717   -0.8250    0.0000 C   0  0  0  0  0  0  0  0  0  0  0  0
   -1.0717    0.0000    0.0000 C   0  0  0  0  0  0  0  0  0  0  0  0
    0.3573    0.0000    0.0000 C   0  0  0  0  0  0  0  0  0  0  0  0
   -0.3571    0.4125    0.0000 C   0  0  0  0  0  0  0  0  0  0  0  0
    0.3573   -0.8250    0.0000 C   0  0  0  0  0  0  0  0  0  0  0  0
   -0.3571   -1.2375    0.0000 C   0  0  0  0  0  0  0  0  0  0  0  0
    1.0718    0.4125    0.0000 Cl  0  0  0  0  0  0  0  0  0  0  0  0
   -0.3571    1.2375    0.0000 Cl  0  0  0  0  0  0  0  0  0  0  0  0
  1  2  2  0
  7  3  1  0
  4  3  2  0
  2  4  1  0
  8  4  1  0
  3  5  1  0
  6  5  2  0
  6  1  1  0
M  END
>  <DATABASE_ID>  (1) 
DB13963

>  <DATABASE_NAME>  (1) 
drugbank

>  <SMILES>  (1) 
ClC1=C(Cl)C=CC=C1

>  <INCHI_IDENTIFIER>  (1) 
InChI=1S/C6H4Cl2/c7-5-3-1-2-4-6(5)8/h1-4H

>  <INCHI_KEY>  (1) 
RFFLAFLAYFXFSW-UHFFFAOYSA-N

>  <FORMULA>  (1) 
C6H4Cl2

>  <MOLECULAR_WEIGHT>  (1) 
147.002

>  <EXACT_MASS>  (1) 
145.969005542

>  <JCHEM_ACCEPTOR_COUNT>  (1) 
0

>  <JCHEM_ATOM_COUNT>  (1) 
12

>  <JCHEM_AVERAGE_POLARIZABILITY>  (1) 
13.143467804157206

>  <JCHEM_BIOAVAILABILITY>  (1) 
1

>  <JCHEM_DONOR_COUNT>  (1) 
0

>  <JCHEM_FORMAL_CHARGE>  (1) 
0

>  <JCHEM_GHOSE_FILTER>  (1) 
0

>  <JCHEM_IUPAC>  (1) 
1,2-dichlorobenzene

>  <ALOGPS_LOGP>  (1) 
3.45

>  <JCHEM_LOGP>  (1) 
3.181335168666666

>  <ALOGPS_LOGS>  (1) 
-3.05

>  <JCHEM_MDDR_LIKE_RULE>  (1) 
0

>  <JCHEM_NUMBER_OF_RINGS>  (1) 
1

>  <JCHEM_PHYSIOLOGICAL_CHARGE>  (1) 
0

>  <JCHEM_POLAR_SURFACE_AREA>  (1) 
0.0

>  <JCHEM_REFRACTIVITY>  (1) 
35.6676

>  <JCHEM_ROTATABLE_BOND_COUNT>  (1) 
0

>  <JCHEM_RULE_OF_FIVE>  (1) 
1

>  <ALOGPS_SOLUBILITY>  (1) 
1.30e-01 g/l

>  <JCHEM_TRADITIONAL_IUPAC>  (1) 
o-dichlorobenzene

>  <JCHEM_VEBER_RULE>  (1) 
1

>  <DRUGBANK_ID>  (1) 
DB13963

>  <DRUG_GROUPS>  (1) 
approved; withdrawn

>  <GENERIC_NAME>  (1) 
1,2-dichlorobenzene

>  <SYNONYMS>  (1) 
2-Dichlorobenzene; o-dichlorbenzene; o-Dichlorbenzol; o-Dichlorobenzene; ODB; ODCB; ortho-Dichlorobenzene; Orthodichlorobenzene; orthodichlorobenzol

$$$$
