
     RDKit          2D

 46 45  0  0  0  0  0  0  0  0999 V2000
   -0.7144    0.5608    0.0000 P   0  0  0  0  0  0  0  0  0  0  0  0
   -0.7144   -0.2641    0.0000 O   0  0  0  0  0  0  0  0  0  0  0  0
    1.4289   -1.5016    0.0000 C   0  0  0  0  0  0  0  0  0  0  0  0
   -1.4289    0.9733    0.0000 O   0  0  0  0  0  0  0  0  0  0  0  0
   -1.4289   -3.1516    0.0000 C   0  0  0  0  0  0  0  0  0  0  0  0
    0.7144    3.0358    0.0000 N   0  0  0  0  0  0  0  0  0  0  0  0
    0.7144   -1.9141    0.0000 O   0  0  0  0  0  0  0  0  0  0  0  0
    0.0000    0.9733    0.0000 O   0  0  0  0  0  0  0  0  0  0  0  0
    0.0000   -0.6766    0.0000 C   0  0  0  0  0  0  0  0  0  0  0  0
    1.4289   -0.6766    0.0000 O   0  0  0  0  0  0  0  0  0  0  0  0
   -1.4289   -3.9766    0.0000 O   0  0  0  0  0  0  0  0  0  0  0  0
   -0.7144   -2.7391    0.0000 O   0  0  0  0  0  0  0  0  0  0  0  0
    0.0000   -1.5016    0.0000 C   0  0  0  0  0  0  0  0  0  0  0  0
    0.0000    1.7983    0.0000 C   0  0  0  0  0  0  0  0  0  0  0  0
   -0.7144   -1.9141    0.0000 C   0  0  0  0  0  0  0  0  0  0  0  0
    0.7144    2.2108    0.0000 C   0  0  0  0  0  0  0  0  0  0  0  0
    1.4289    3.4483    0.0000 C   0  0  0  0  0  0  0  0  0  0  0  0
    0.0000    3.4483    0.0000 C   0  0  0  0  0  0  0  0  0  0  0  0
    3.5723   -1.9141    0.0000 C   0  0  0  0  0  0  0  0  0  0  0  0
    3.5723   -2.7391    0.0000 C   0  0  0  0  0  0  0  0  0  0  0  0
    2.8578   -1.5016    0.0000 C   0  0  0  0  0  0  0  0  0  0  0  0
    2.8578   -3.1516    0.0000 C   0  0  0  0  0  0  0  0  0  0  0  0
    2.1434   -1.9141    0.0000 C   0  0  0  0  0  0  0  0  0  0  0  0
    5.0013   -1.9141    0.0000 C   0  0  0  0  0  0  0  0  0  0  0  0
    5.0013   -2.7391    0.0000 C   0  0  0  0  0  0  0  0  0  0  0  0
    4.2868   -1.5016    0.0000 C   0  0  0  0  0  0  0  0  0  0  0  0
    4.2868   -3.1516    0.0000 C   0  0  0  0  0  0  0  0  0  0  0  0
    6.4303   -1.9141    0.0000 C   0  0  0  0  0  0  0  0  0  0  0  0
    6.4303   -2.7391    0.0000 C   0  0  0  0  0  0  0  0  0  0  0  0
    5.7157   -1.5016    0.0000 C   0  0  0  0  0  0  0  0  0  0  0  0
    5.7157   -3.1516    0.0000 C   0  0  0  0  0  0  0  0  0  0  0  0
   -3.5724   -2.7391    0.0000 C   0  0  0  0  0  0  0  0  0  0  0  0
   -3.5724   -1.9141    0.0000 C   0  0  0  0  0  0  0  0  0  0  0  0
   -2.8578   -3.1516    0.0000 C   0  0  0  0  0  0  0  0  0  0  0  0
   -2.8578   -1.5016    0.0000 C   0  0  0  0  0  0  0  0  0  0  0  0
   -2.1434   -2.7391    0.0000 C   0  0  0  0  0  0  0  0  0  0  0  0
   -5.0013   -2.7391    0.0000 C   0  0  0  0  0  0  0  0  0  0  0  0
   -5.0013   -1.9141    0.0000 C   0  0  0  0  0  0  0  0  0  0  0  0
   -4.2868   -3.1516    0.0000 C   0  0  0  0  0  0  0  0  0  0  0  0
   -4.2868   -1.5016    0.0000 C   0  0  0  0  0  0  0  0  0  0  0  0
   -6.4303   -2.7391    0.0000 C   0  0  0  0  0  0  0  0  0  0  0  0
   -6.4303   -1.9141    0.0000 C   0  0  0  0  0  0  0  0  0  0  0  0
   -5.7158   -3.1516    0.0000 C   0  0  0  0  0  0  0  0  0  0  0  0
   -5.7158   -1.5016    0.0000 C   0  0  0  0  0  0  0  0  0  0  0  0
    0.7089    3.9766    0.0000 C   0  0  0  0  0  0  0  0  0  0  0  0
    0.0031    0.1398    0.0000 O   0  0  0  0  0  0  0  0  0  0  0  0
  2  1  1  0
  3  7  1  0
  4  1  2  0
  5 12  1  0
  6 16  1  0
  7 13  1  0
  8  1  1  0
  9  2  1  0
 10  3  2  0
 11  5  2  0
 12 15  1  0
 13  9  1  0
 14  8  1  0
 15 13  1  0
 16 14  1  0
 17  6  1  0
 18  6  1  0
 21 19  1  0
 22 20  1  0
 23 21  1  0
 26 24  1  0
 27 25  1  0
 19 26  1  0
 20 27  1  0
 29 28  1  0
 30 28  1  0
 31 29  1  0
 24 30  1  0
 25 31  1  0
 23  3  1  0
 34 32  1  0
 35 33  1  0
 36 34  1  0
 39 37  1  0
 40 38  1  0
 32 39  1  0
 33 40  1  0
 42 41  1  0
 43 41  1  0
 44 42  1  0
 37 43  1  0
 38 44  1  0
 36  5  1  0
  6 45  1  0
  1 46  1  0
M  CHG  2   6   1  46  -1
M  END
>  <DATABASE_ID>  (1) 
DB11283

>  <DATABASE_NAME>  (1) 
drugbank

>  <SMILES>  (1) 
CCCCCCCCCCCCCC(=O)OCC(COP([O-])(=O)OCC[N+](C)(C)C)OC(=O)CCCCCCCCCCCCC

>  <INCHI_IDENTIFIER>  (1) 
InChI=1S/C36H72NO8P/c1-6-8-10-12-14-16-18-20-22-24-26-28-35(38)42-32-34(33-44-46(40,41)43-31-30-37(3,4)5)45-36(39)29-27-25-23-21-19-17-15-13-11-9-7-2/h34H,6-33H2,1-5H3

>  <INCHI_KEY>  (1) 
CITHEXJVPOWHKC-UHFFFAOYSA-N

>  <FORMULA>  (1) 
C36H72NO8P

>  <MOLECULAR_WEIGHT>  (1) 
677.945

>  <EXACT_MASS>  (1) 
677.49955528

>  <JCHEM_ACCEPTOR_COUNT>  (1) 
4

>  <JCHEM_ATOM_COUNT>  (1) 
118

>  <JCHEM_AVERAGE_POLARIZABILITY>  (1) 
81.71731393197302

>  <JCHEM_BIOAVAILABILITY>  (1) 
0

>  <JCHEM_DONOR_COUNT>  (1) 
0

>  <JCHEM_FORMAL_CHARGE>  (1) 
0

>  <JCHEM_GHOSE_FILTER>  (1) 
0

>  <JCHEM_IUPAC>  (1) 
(2-{[2,3-bis(tetradecanoyloxy)propyl phosphono]oxy}ethyl)trimethylazanium

>  <ALOGPS_LOGP>  (1) 
4.57

>  <JCHEM_LOGP>  (1) 
6.3355217191949205

>  <ALOGPS_LOGS>  (1) 
-7.26

>  <JCHEM_MDDR_LIKE_RULE>  (1) 
0

>  <JCHEM_NUMBER_OF_RINGS>  (1) 
0

>  <JCHEM_PHYSIOLOGICAL_CHARGE>  (1) 
0

>  <JCHEM_PKA_STRONGEST_ACIDIC>  (1) 
1.8550572064469137

>  <JCHEM_PKA_STRONGEST_BASIC>  (1) 
-6.744159309169687

>  <JCHEM_POLAR_SURFACE_AREA>  (1) 
111.19000000000001

>  <JCHEM_REFRACTIVITY>  (1) 
197.46110000000002

>  <JCHEM_ROTATABLE_BOND_COUNT>  (1) 
36

>  <JCHEM_RULE_OF_FIVE>  (1) 
0

>  <ALOGPS_SOLUBILITY>  (1) 
4.03e-05 g/l

>  <JCHEM_TRADITIONAL_IUPAC>  (1) 
(2-{[2,3-bis(tetradecanoyloxy)propyl phosphono]oxy}ethyl)trimethylazanium

>  <JCHEM_VEBER_RULE>  (1) 
0

>  <DRUGBANK_ID>  (1) 
DB11283

>  <SECONDARY_ACCESSION_NUMBERS>  (1) 
DBSALT001574

>  <DRUG_GROUPS>  (1) 
approved

>  <GENERIC_NAME>  (1) 
DL-dimyristoylphosphatidylcholine

>  <SYNONYMS>  (1) 
dimyristoyl phosphatidylcholine; dimyristoyl-phosphatidylcholine; Dimyristoylphosphatidylcholine; Dimyristoylphosphatidylcholine, DL-; DL-dimyristoylphosphatidylcholine; DMPC; l-α-dimyristoylphosphatidylcholine

>  <PRODUCTS>  (1) 
Abelcet

$$$$
