
     RDKit          2D

 25 27  0  0  0  0  0  0  0  0999 V2000
    0.1067   -0.1848    0.0000 C   0  0  0  0  0  0  0  0  0  0  0  0
   -0.6078   -0.5973    0.0000 C   0  0  0  0  0  0  0  0  0  0  0  0
   -1.3222   -0.1848    0.0000 C   0  0  0  0  0  0  0  0  0  0  0  0
   -0.6078   -1.4223    0.0000 N   0  0  0  0  0  0  0  0  0  0  0  0
    0.0597   -1.9072    0.0000 N   0  0  0  0  0  0  0  0  0  0  0  0
   -0.1953   -2.6919    0.0000 C   0  0  0  0  0  0  0  0  0  0  0  0
   -1.0203   -2.6919    0.0000 C   0  0  0  0  0  0  0  0  0  0  0  0
   -1.2752   -1.9072    0.0000 C   0  0  0  0  0  0  0  0  0  0  0  0
   -2.0598   -1.6523    0.0000 C   0  0  0  0  0  0  0  0  0  0  0  0
   -2.6729   -2.2043    0.0000 C   0  0  0  0  0  0  0  0  0  0  0  0
   -2.5014   -3.0113    0.0000 C   0  0  0  0  0  0  0  0  0  0  0  0
   -1.7168   -3.2662    0.0000 O   0  0  0  0  0  0  0  0  0  0  0  0
   -1.5452   -4.0732    0.0000 C   0  0  0  0  0  0  0  0  0  0  0  0
   -0.7606   -4.3282    0.0000 C   0  0  0  0  0  0  0  0  0  0  0  0
   -0.5891   -5.1351    0.0000 C   0  0  0  0  0  0  0  0  0  0  0  0
   -1.2022   -5.6872    0.0000 C   0  0  0  0  0  0  0  0  0  0  0  0
   -1.9868   -5.4322    0.0000 C   0  0  0  0  0  0  0  0  0  0  0  0
   -2.5999   -5.9843    0.0000 O   0  0  0  0  0  0  0  0  0  0  0  0
   -2.1583   -4.6253    0.0000 C   0  0  0  0  0  0  0  0  0  0  0  0
   -2.9430   -4.3703    0.0000 C   0  0  0  0  0  0  0  0  0  0  0  0
   -3.1145   -3.5633    0.0000 O   0  0  0  0  0  0  0  0  0  0  0  0
   -3.4575   -1.9494    0.0000 C   0  0  0  0  0  0  0  0  0  0  0  0
   -3.6291   -1.1424    0.0000 C   0  0  0  0  0  0  0  0  0  0  0  0
   -3.0160   -0.5904    0.0000 C   0  0  0  0  0  0  0  0  0  0  0  0
   -2.2314   -0.8453    0.0000 N   0  0  0  0  0  0  0  0  0  0  0  0
  1  2  1  0
  2  3  1  0
  2  4  1  0
  4  5  1  0
  5  6  2  0
  6  7  1  0
  7  8  2  0
  4  8  1  0
  8  9  1  0
  9 10  1  0
 10 11  1  0
 11 12  1  0
 12 13  1  0
 13 14  2  0
 14 15  1  0
 15 16  2  0
 16 17  1  0
 17 18  1  0
 17 19  2  0
 13 19  1  0
 19 20  1  0
 20 21  2  0
 10 22  2  0
 22 23  1  0
 23 24  2  0
 24 25  1  0
  9 25  2  0
M  END
>  <DATABASE_ID>  (1) 
DB14975

>  <DATABASE_NAME>  (1) 
drugbank

>  <SMILES>  (1) 
CC(C)N1N=CC=C1C1=C(COC2=CC=CC(O)=C2C=O)C=CC=N1

>  <INCHI_IDENTIFIER>  (1) 
InChI=1S/C19H19N3O3/c1-13(2)22-16(8-10-21-22)19-14(5-4-9-20-19)12-25-18-7-3-6-17(24)15(18)11-23/h3-11,13,24H,12H2,1-2H3

>  <INCHI_KEY>  (1) 
FWCVZAQENIZVMY-UHFFFAOYSA-N

>  <FORMULA>  (1) 
C19H19N3O3

>  <MOLECULAR_WEIGHT>  (1) 
337.379

>  <EXACT_MASS>  (1) 
337.142641484

>  <JCHEM_ACCEPTOR_COUNT>  (1) 
5

>  <JCHEM_ATOM_COUNT>  (1) 
44

>  <JCHEM_AVERAGE_POLARIZABILITY>  (1) 
35.37487115247142

>  <JCHEM_BIOAVAILABILITY>  (1) 
1

>  <JCHEM_DONOR_COUNT>  (1) 
1

>  <JCHEM_FORMAL_CHARGE>  (1) 
0

>  <JCHEM_GHOSE_FILTER>  (1) 
1

>  <JCHEM_IUPAC>  (1) 
2-hydroxy-6-({2-[1-(propan-2-yl)-1H-pyrazol-5-yl]pyridin-3-yl}methoxy)benzaldehyde

>  <ALOGPS_LOGP>  (1) 
3.02

>  <JCHEM_LOGP>  (1) 
3.5356321120000005

>  <ALOGPS_LOGS>  (1) 
-3.81

>  <JCHEM_MDDR_LIKE_RULE>  (1) 
1

>  <JCHEM_NUMBER_OF_RINGS>  (1) 
3

>  <JCHEM_PHYSIOLOGICAL_CHARGE>  (1) 
0

>  <JCHEM_PKA_STRONGEST_ACIDIC>  (1) 
8.459890224723372

>  <JCHEM_PKA_STRONGEST_BASIC>  (1) 
3.4092791625260648

>  <JCHEM_POLAR_SURFACE_AREA>  (1) 
77.24

>  <JCHEM_REFRACTIVITY>  (1) 
106.2543

>  <JCHEM_ROTATABLE_BOND_COUNT>  (1) 
6

>  <JCHEM_RULE_OF_FIVE>  (1) 
1

>  <ALOGPS_SOLUBILITY>  (1) 
5.26e-02 g/l

>  <JCHEM_TRADITIONAL_IUPAC>  (1) 
(2R)-14-fluoro-2-methyl-6,9,10,19-tetraazapentacyclo[14.2.1.0^{2,6}.0^{8,18}.0^{12,17}]nonadeca-1(18),8,12(17),13,15-pentaen-11-one

>  <JCHEM_VEBER_RULE>  (1) 
0

>  <DRUGBANK_ID>  (1) 
DB14975

>  <DRUG_GROUPS>  (1) 
approved; investigational

>  <GENERIC_NAME>  (1) 
Voxelotor

>  <SYNONYMS>  (1) 
Voxélotor; Voxelotor; Voxelotorum

>  <PRODUCTS>  (1) 
Oxbryta

$$$$
