
     RDKit          2D

 15 15  0  0  0  0  0  0  0  0999 V2000
   -4.2868    0.8250    0.0000 C   0  0  0  0  0  0  0  0  0  0  0  0
    2.1434    2.0625    0.0000 C   0  0  0  0  0  0  0  0  0  0  0  0
   -3.5724    1.2375    0.0000 C   0  0  0  0  0  0  0  0  0  0  0  0
   -2.8579    0.8250    0.0000 C   0  0  0  0  0  0  0  0  0  0  0  0
    0.0000    0.0000    0.0000 C   0  0  0  0  0  0  0  0  0  0  0  0
    0.7145   -0.4125    0.0000 C   0  0  0  0  0  0  0  0  0  0  0  0
   -2.1434    1.2375    0.0000 C   0  0  0  0  0  0  0  0  0  0  0  0
    0.7145    1.2375    0.0000 C   0  0  0  0  0  0  0  0  0  0  0  0
   -0.7145    1.2375    0.0000 C   0  0  0  0  0  0  0  0  0  0  0  0
    0.0000    0.8250    0.0000 C   0  0  0  0  0  0  0  0  0  0  0  0
    1.4289    0.0000    0.0000 C   0  0  0  0  0  0  0  0  0  0  0  0
    1.4289    0.8250    0.0000 C   0  0  0  0  0  0  0  0  0  0  0  0
    2.1434   -0.4125    0.0000 O   0  0  0  0  0  0  0  0  0  0  0  0
    2.1434    1.2375    0.0000 O   0  0  0  0  0  0  0  0  0  0  0  0
   -1.4289    0.8250    0.0000 O   0  0  0  0  0  0  0  0  0  0  0  0
  3  1  1  0
  4  3  1  0
  6  5  2  0
  7  4  1  0
 10  5  1  0
 10  8  2  0
 10  9  1  0
 11  6  1  0
 12  8  1  0
 12 11  2  0
 13 11  1  0
 14  2  1  0
 14 12  1  0
 15  7  1  0
 15  9  1  0
M  END
>  <DATABASE_ID>  (1) 
DB11299

>  <DATABASE_NAME>  (1) 
drugbank

>  <SMILES>  (1) 
CCCCOCC1=CC(OC)=C(O)C=C1

>  <INCHI_IDENTIFIER>  (1) 
InChI=1S/C12H18O3/c1-3-4-7-15-9-10-5-6-11(13)12(8-10)14-2/h5-6,8,13H,3-4,7,9H2,1-2H3

>  <INCHI_KEY>  (1) 
VLDFMKOUUQYFGF-UHFFFAOYSA-N

>  <FORMULA>  (1) 
C12H18O3

>  <MOLECULAR_WEIGHT>  (1) 
210.2695

>  <EXACT_MASS>  (1) 
210.125594442

>  <JCHEM_ACCEPTOR_COUNT>  (1) 
3

>  <JCHEM_ATOM_COUNT>  (1) 
33

>  <JCHEM_AVERAGE_NEUTRAL_MICROSPECIES_CHARGE>  (1) 
-0.0012149967332071843

>  <JCHEM_AVERAGE_POLARIZABILITY>  (1) 
24.212367813457007

>  <JCHEM_BIOAVAILABILITY>  (1) 
1

>  <JCHEM_DONOR_COUNT>  (1) 
1

>  <JCHEM_FORMAL_CHARGE>  (1) 
0

>  <JCHEM_GHOSE_FILTER>  (1) 
1

>  <JCHEM_IUPAC>  (1) 
4-(butoxymethyl)-2-methoxyphenol

>  <ALOGPS_LOGP>  (1) 
2.78

>  <JCHEM_LOGP>  (1) 
2.7116849796666673

>  <ALOGPS_LOGS>  (1) 
-2.69

>  <JCHEM_MDDR_LIKE_RULE>  (1) 
0

>  <JCHEM_NEUTRAL_CHARGE>  (1) 
0

>  <JCHEM_NUMBER_OF_RINGS>  (1) 
1

>  <JCHEM_PHYSIOLOGICAL_CHARGE>  (1) 
0

>  <JCHEM_PKA_STRONGEST_ACIDIC>  (1) 
9.914896899216428

>  <JCHEM_PKA_STRONGEST_BASIC>  (1) 
-4.081491988696418

>  <JCHEM_POLAR_SURFACE_AREA>  (1) 
38.69

>  <JCHEM_REFRACTIVITY>  (1) 
59.94280000000002

>  <JCHEM_ROTATABLE_BOND_COUNT>  (1) 
6

>  <JCHEM_RULE_OF_FIVE>  (1) 
1

>  <ALOGPS_SOLUBILITY>  (1) 
4.25e-01 g/l

>  <JCHEM_TRADITIONAL_IUPAC>  (1) 
biotin

>  <JCHEM_VEBER_RULE>  (1) 
1

>  <DRUGBANK_ID>  (1) 
DB11299

>  <DRUG_GROUPS>  (1) 
approved

>  <GENERIC_NAME>  (1) 
Vanillyl butyl ether

>  <SYNONYMS>  (1) 
4-(Butoxymethyl)-2-methoxyphenol; Butyl vanillyl ether

>  <PRODUCTS>  (1) 
88 Tong Tong varcia Sports Body Massage; Cell Acher Sports Body Massage; Fatazen Sweat Enhance Hot; Nano Ppc; Seeone Body Relax

$$$$
