
     RDKit          2D

  3  2  0  0  0  0  0  0  0  0999 V2000
    2.9013   -2.9288    0.0000 N   0  0  0  0  0  0  0  0  0  0  0  0
    3.7263   -2.9288    0.0000 O   0  0  0  0  0  0  0  0  0  0  0  0
    2.4888   -2.2143    0.0000 O   0  0  0  0  0  0  0  0  0  0  0  0
  2  1  1  0
  3  1  2  0
M  CHG  1   2  -1
M  END
>  <DATABASE_ID>  (1) 
DB12529

>  <DATABASE_NAME>  (1) 
drugbank

>  <SMILES>  (1) 
[O-]N=O

>  <INCHI_IDENTIFIER>  (1) 
InChI=1S/HNO2/c2-1-3/h(H,2,3)/p-1

>  <INCHI_KEY>  (1) 
IOVCWXUNBOPUCH-UHFFFAOYSA-M

>  <FORMULA>  (1) 
NO2

>  <MOLECULAR_WEIGHT>  (1) 
46.0055

>  <EXACT_MASS>  (1) 
45.992903249

>  <JCHEM_ACCEPTOR_COUNT>  (1) 
2

>  <JCHEM_ATOM_COUNT>  (1) 
3

>  <JCHEM_AVERAGE_NEUTRAL_MICROSPECIES_CHARGE>  (1) 
3.404785732477296e-11

>  <JCHEM_AVERAGE_POLARIZABILITY>  (1) 
2.4448587770475987

>  <JCHEM_BIOAVAILABILITY>  (1) 
1

>  <JCHEM_DONOR_COUNT>  (1) 
0

>  <JCHEM_FORMAL_CHARGE>  (1) 
-1

>  <JCHEM_GHOSE_FILTER>  (1) 
0

>  <JCHEM_IUPAC>  (1) 
nitrite

>  <JCHEM_LOGP>  (1) 
0.166137638

>  <JCHEM_MDDR_LIKE_RULE>  (1) 
0

>  <JCHEM_NEUTRAL_CHARGE>  (1) 
0

>  <JCHEM_NUMBER_OF_RINGS>  (1) 
0

>  <JCHEM_PHYSIOLOGICAL_CHARGE>  (1) 
0

>  <JCHEM_PKA_STRONGEST_BASIC>  (1) 
-3.467910213583911

>  <JCHEM_POLAR_SURFACE_AREA>  (1) 
52.49

>  <JCHEM_REFRACTIVITY>  (1) 
7.6

>  <JCHEM_ROTATABLE_BOND_COUNT>  (1) 
0

>  <JCHEM_RULE_OF_FIVE>  (1) 
1

>  <JCHEM_TRADITIONAL_IUPAC>  (1) 
tetrahydrofolic acid

>  <JCHEM_VEBER_RULE>  (1) 
0

>  <DRUGBANK_ID>  (1) 
DB12529

>  <DRUG_GROUPS>  (1) 
approved; withdrawn

>  <GENERIC_NAME>  (1) 
Nitrite

>  <SYNONYMS>  (1) 
Nitrite; Nitrite anion; Nitrite ion

$$$$
