
     RDKit          2D

  1  0  0  0  0  0  0  0  0  0999 V2000
    0.0000    0.0000    0.0000 Ag  0  0  0  0  0 15  0  0  0  0  0  0
M  END
>  <DATABASE_ID>  (1) 
DB12965

>  <DATABASE_NAME>  (1) 
drugbank

>  <SMILES>  (1) 
[Ag]

>  <INCHI_IDENTIFIER>  (1) 
InChI=1S/Ag

>  <INCHI_KEY>  (1) 
BQCADISMDOOEFD-UHFFFAOYSA-N

>  <FORMULA>  (1) 
Ag

>  <MOLECULAR_WEIGHT>  (1) 
107.8682

>  <EXACT_MASS>  (1) 
106.90509302

>  <JCHEM_ACCEPTOR_COUNT>  (1) 
0

>  <JCHEM_ATOM_COUNT>  (1) 
1

>  <JCHEM_AVERAGE_NEUTRAL_MICROSPECIES_CHARGE>  (1) 
0.0

>  <JCHEM_AVERAGE_POLARIZABILITY>  (1) 
1.7784

>  <JCHEM_BIOAVAILABILITY>  (1) 
1

>  <JCHEM_DONOR_COUNT>  (1) 
0

>  <JCHEM_FORMAL_CHARGE>  (1) 
0

>  <JCHEM_GHOSE_FILTER>  (1) 
0

>  <JCHEM_IUPAC>  (1) 
silver

>  <JCHEM_LOGP>  (1) 
-0.73

>  <JCHEM_MDDR_LIKE_RULE>  (1) 
0

>  <JCHEM_NEUTRAL_CHARGE>  (1) 
0

>  <JCHEM_NUMBER_OF_RINGS>  (1) 
0

>  <JCHEM_PHYSIOLOGICAL_CHARGE>  (1) 
0

>  <JCHEM_POLAR_SURFACE_AREA>  (1) 
0.0

>  <JCHEM_REFRACTIVITY>  (1) 
0.0

>  <JCHEM_ROTATABLE_BOND_COUNT>  (1) 
0

>  <JCHEM_RULE_OF_FIVE>  (1) 
1

>  <JCHEM_TRADITIONAL_IUPAC>  (1) 
tetrahydrofolic acid

>  <JCHEM_VEBER_RULE>  (1) 
1

>  <DRUGBANK_ID>  (1) 
DB12965

>  <DRUG_GROUPS>  (1) 
approved; investigational

>  <GENERIC_NAME>  (1) 
Silver

>  <SYNONYMS>  (1) 
Argentum metallicum; Colloidal silver; Nanosilver; Silver colloidal; Silver nanoparticles; Silver, colloidal

>  <PRODUCTS>  (1) 
Advance Acne Care; Antibacterial Hand Wash; Antibacterial Washing Free; Argentyn 23 Professional Silver First Aid Gel; Argentyn 23 Professionele Eerste Hulp Zilver Gel; Argentyn 23Bio active silver Bio active silver hydrosol; Argentyn 23Professionele Eer Professionele Eerste Hulp Zilver Gel; Ave Silvergen; BabyO2; DISINFECTANT WITH pure SILVER; Disinfectant Deodorant (Waterfos); FungiFree Antifungal Ringworm Cream; G SOL Sanitizing; G Sol; Happy Master Silver Water(hand cleaning); Instant Hand Sanitizer; Noble S Plus; Oxicleanse; Quantum Bacteriostatic purification catalyst; Silver Ion Feminine Antibacterial Gels; Silver Ion Rinse-free Hand Sanitizing Gel; Sovereign Silver Eerste Hulp Gel; Sovereign Silver First Aid Gel; Sovereign SilverBio-Active Silver Bio-Active Silver Hydrosol; Yan Plus Super Medic; iBrea Micro Silver Anti Bacterial With Pure Silver; iBrea Micro Silver Hand with Pure Silver

$$$$
