
     RDKit          2D

  8  8  0  0  0  0  0  0  0  0999 V2000
   -0.8352   -0.4266    0.0000 C   0  0  0  0  0  0  0  0  0  0  0  0
   -0.0102   -0.4266    0.0000 C   0  0  0  0  0  0  0  0  0  0  0  0
   -0.4227    0.2878    0.0000 O   0  0  0  0  0  0  0  0  0  0  0  0
   -1.4186    0.1567    0.0000 C   0  0  0  0  0  0  0  0  0  0  0  0
    0.7041   -0.0140    0.0000 P   0  0  0  0  0  0  0  0  0  0  0  0
    0.7041    0.8109    0.0000 O   0  0  0  0  0  0  0  0  0  0  0  0
    0.9176   -0.8109    0.0000 O   0  0  0  0  0  0  0  0  0  0  0  0
    1.4186   -0.4266    0.0000 O   0  0  0  0  0  0  0  0  0  0  0  0
  1  2  1  0
  1  3  1  0
  2  3  1  0
  1  4  1  6
  2  5  1  6
  5  6  2  0
  5  7  1  0
  5  8  1  0
M  END
>  <DATABASE_ID>  (1) 
DB00828

>  <DATABASE_NAME>  (1) 
drugbank

>  <SMILES>  (1) 
C[C@@H]1O[C@@H]1P(O)(O)=O

>  <INCHI_IDENTIFIER>  (1) 
InChI=1S/C3H7O4P/c1-2-3(7-2)8(4,5)6/h2-3H,1H3,(H2,4,5,6)/t2-,3+/m0/s1

>  <INCHI_KEY>  (1) 
YMDXZJFXQJVXBF-STHAYSLISA-N

>  <FORMULA>  (1) 
C3H7O4P

>  <MOLECULAR_WEIGHT>  (1) 
138.059

>  <EXACT_MASS>  (1) 
138.008195224

>  <JCHEM_ACCEPTOR_COUNT>  (1) 
4

>  <JCHEM_ATOM_COUNT>  (1) 
15

>  <JCHEM_AVERAGE_POLARIZABILITY>  (1) 
10.802823765292468

>  <JCHEM_BIOAVAILABILITY>  (1) 
1

>  <JCHEM_DONOR_COUNT>  (1) 
2

>  <JCHEM_FORMAL_CHARGE>  (1) 
0

>  <JCHEM_GHOSE_FILTER>  (1) 
0

>  <JCHEM_IUPAC>  (1) 
[(2R,3S)-3-methyloxiran-2-yl]phosphonic acid

>  <ALOGPS_LOGP>  (1) 
-0.86

>  <JCHEM_LOGP>  (1) 
-0.7377748799999998

>  <ALOGPS_LOGS>  (1) 
-0.47

>  <JCHEM_MDDR_LIKE_RULE>  (1) 
0

>  <JCHEM_NUMBER_OF_RINGS>  (1) 
1

>  <JCHEM_PHYSIOLOGICAL_CHARGE>  (1) 
-1

>  <JCHEM_PKA>  (1) 
7.82082800096408

>  <JCHEM_PKA_STRONGEST_ACIDIC>  (1) 
1.2504967658604222

>  <JCHEM_PKA_STRONGEST_BASIC>  (1) 
-4.306369310142532

>  <JCHEM_POLAR_SURFACE_AREA>  (1) 
70.06

>  <JCHEM_REFRACTIVITY>  (1) 
25.8737

>  <JCHEM_ROTATABLE_BOND_COUNT>  (1) 
1

>  <JCHEM_RULE_OF_FIVE>  (1) 
1

>  <ALOGPS_SOLUBILITY>  (1) 
4.69e+01 g/l

>  <JCHEM_TRADITIONAL_IUPAC>  (1) 
fosfomycin

>  <JCHEM_VEBER_RULE>  (1) 
0

>  <DRUGBANK_ID>  (1) 
DB00828

>  <SECONDARY_ACCESSION_NUMBERS>  (1) 
APRD00987

>  <DRUG_GROUPS>  (1) 
approved; investigational

>  <GENERIC_NAME>  (1) 
Fosfomycin

>  <SYNONYMS>  (1) 
(-)-(1R,2S)-(1,2-Epoxypropyl)phosphonic acid; (1R,2S)-epoxypropylphosphonic acid; (2R-cis)-(3-Methyloxiranyl)phosphonic acid; 1R-cis-(1,2-epoxypropyl)phosphonic acid; cis-(1R,2S)-epoxypropylphosphonic acid; FCM; Fosfocina; Fosfomicina; Fosfomycin; Fosfomycine; Fosfomycinum; L-cis-1,2-epoxypropylphosphonic acid; Phosphomycin; Phosphonemycin; Phosphonomycin

>  <PRODUCTS>  (1) 
Contepo; Fosfomycin Powder for Oral Solution; Fosfomycin Tromethamine; Fosfomycin tromethamine; Ivozfo; Jamp-fosfomycin; Monurol

>  <INTERNATIONAL_BRANDS>  (1) 
Veramina

>  <SALTS>  (1) 
Fosfomycin calcium monohydrate; Fosfomycin sodium; Fosfomycin tromethamine

$$$$
