
     RDKit          2D

 25 24  0  0  1  0  0  0  0  0999 V2000
   -2.6456   -0.3531    0.0000 C   0  0  0  0  0  0  0  0  0  0  0  0
   -3.4463    0.8798    0.0000 C   0  0  0  0  0  0  0  0  0  0  0  0
   -4.6658    0.3368    0.0000 C   0  0  0  0  0  0  0  0  0  0  0  0
   -3.3601    0.0593    0.0000 C   0  0  0  0  0  0  0  0  0  0  0  0
   -1.9311    0.0593    0.0000 C   0  0  0  0  0  0  0  0  0  0  0  0
   -1.2166   -0.3531    0.0000 C   0  0  0  0  0  0  0  0  0  0  0  0
   -1.9311    0.8843    0.0000 N   0  0  0  0  0  0  0  0  0  0  0  0
   -4.2533    1.0512    0.0000 N   0  0  0  0  0  0  0  0  0  0  0  0
   -4.1137   -0.2762    0.0000 N   0  0  0  0  0  0  0  0  0  0  0  0
   -1.2166   -1.1781    0.0000 O   0  0  0  0  0  0  0  0  0  0  0  0
   -0.5021    0.0593    0.0000 O   0  0  0  0  0  0  0  0  0  0  0  0
    3.9983    0.2222    0.0000 C   0  0  0  0  0  0  0  0  0  0  0  0
    3.3309   -1.0876    0.0000 C   0  0  0  0  0  0  0  0  0  0  0  0
    4.4108   -1.8722    0.0000 C   0  0  0  0  0  0  0  0  0  0  0  0
    3.9983   -0.6027    0.0000 C   0  0  0  0  0  0  0  0  0  0  0  0
    3.2838    0.6347    0.0000 C   0  0  0  0  0  0  0  0  0  0  0  0
    3.2838    1.4597    0.0000 C   0  0  0  0  0  0  0  0  0  0  0  0
    2.5693    0.2222    0.0000 N   0  0  0  0  0  0  0  0  0  0  0  0
    3.5858   -1.8722    0.0000 N   0  0  0  0  0  0  0  0  0  0  0  0
    4.6658   -1.0876    0.0000 N   0  0  0  0  0  0  0  0  0  0  0  0
    2.5693    1.8722    0.0000 O   0  0  0  0  0  0  0  0  0  0  0  0
    3.9983    1.8722    0.0000 O   0  0  0  0  0  0  0  0  0  0  0  0
    0.2122    0.4718    0.0000 Cu  0  0  0  0  0 15  0  0  0  0  0  0
   -1.9311   -0.7656    0.0000 H   0  0  0  0  0  0  0  0  0  0  0  0
    3.9983    1.0472    0.0000 H   0  0  0  0  0  0  0  0  0  0  0  0
  1  4  1  0
  5  1  1  0
  2  4  2  0
  2  8  1  0
  3  8  2  0
  3  9  1  0
  4  9  1  0
  5 24  1  1
  5  6  1  0
  5  7  1  0
  6 10  2  0
  6 11  1  0
 12 15  1  0
 16 12  1  0
 13 15  2  0
 13 19  1  0
 14 19  2  0
 14 20  1  0
 15 20  1  0
 16 25  1  1
 16 17  1  0
 16 18  1  0
 17 21  2  0
 17 22  1  0
M  CHG  3  11  -1  22  -1  23   2
M  END
>  <DATABASE_ID>  (1) 
DB32041

>  <DATABASE_NAME>  (1) 
drugbank

>  <SMILES>  (1) 
[Cu++].[H][C@](N)(CC1=CN=CN1)C([O-])=O.[H][C@](N)(CC1=CN=CN1)C([O-])=O

>  <INCHI_IDENTIFIER>  (1) 
InChI=1S/2C6H9N3O2.Cu/c2*7-5(6(10)11)1-4-2-8-3-9-4;/h2*2-3,5H,1,7H2,(H,8,9)(H,10,11);/q;;+2/p-2/t2*5-;/m00./s1

>  <INCHI_KEY>  (1) 
UUYDYUZBCIHUFZ-MDTVQASCSA-L

>  <FORMULA>  (1) 
C12H16CuN6O4

>  <MOLECULAR_WEIGHT>  (1) 
371.844

>  <EXACT_MASS>  (1) 
371.052901

>  <DRUGBANK_ID>  (1) 
DB32041

>  <SECONDARY_ACCESSION_NUMBERS>  (1) 
DBSALT003344

>  <DRUG_GROUPS>  (1) 
approved; investigational

>  <GENERIC_NAME>  (1) 
Copper histidinate

>  <SYNONYMS>  (1) 
Copper bis(histidinate); Copper histidinate; Copper histidine

>  <PRODUCTS>  (1) 
Zycubo

$$$$
