
     RDKit          2D

 21 23  0  0  0  0  0  0  0  0999 V2000
    0.3555   -0.4242    0.0000 C   0  0  0  0  0  0  0  0  0  0  0  0
   -0.3525   -0.0200    0.0000 C   0  0  0  0  0  0  0  0  0  0  0  0
    0.3555    1.2098    0.0000 N   0  0  0  0  0  0  0  0  0  0  0  0
    1.0664    0.8112    0.0000 C   0  0  0  0  0  0  0  0  0  0  0  0
    1.0664   -0.0200    0.0000 O   0  0  0  0  0  0  0  0  0  0  0  0
   -0.3525    0.8112    0.0000 C   0  0  0  0  0  0  0  0  0  0  0  0
   -1.0722   -0.4242    0.0000 C   0  0  0  0  0  0  0  0  0  0  0  0
    0.0029   -1.0607    0.0000 C   0  0  0  0  0  0  0  0  0  0  0  0
   -1.0722    1.2098    0.0000 C   0  0  0  0  0  0  0  0  0  0  0  0
    1.7918    1.2241    0.0000 N   0  0  0  0  0  0  0  0  0  0  0  0
   -1.7803   -0.0200    0.0000 C   0  0  0  0  0  0  0  0  0  0  0  0
    1.0235   -0.9230    0.0000 C   0  0  0  0  0  0  0  0  0  0  0  0
   -1.7803    0.8112    0.0000 C   0  0  0  0  0  0  0  0  0  0  0  0
   -2.5027   -0.4358    0.0000 Cl  0  0  0  0  0  0  0  0  0  0  0  0
   -0.8227   -1.0607    0.0000 C   0  0  0  0  0  0  0  0  0  0  0  0
    0.4157   -1.7517    0.0000 C   0  0  0  0  0  0  0  0  0  0  0  0
    1.7918    2.0526    0.0000 C   0  0  0  0  0  0  0  0  0  0  0  0
    2.5027    2.4712    0.0000 C   0  0  0  0  0  0  0  0  0  0  0  0
    0.0029   -2.4712    0.0000 C   0  0  0  0  0  0  0  0  0  0  0  0
   -1.2270   -1.7775    0.0000 C   0  0  0  0  0  0  0  0  0  0  0  0
   -0.8227   -2.4712    0.0000 C   0  0  0  0  0  0  0  0  0  0  0  0
  2  1  1  0
  3  4  2  0
  4  5  1  0
  5  1  1  0
  6  2  2  0
  7  2  1  0
  8  1  1  0
  9  6  1  0
 10  4  1  0
 11  7  2  0
 12  1  1  0
 13 11  1  0
 14 11  1  0
 15  8  2  0
 16  8  1  0
 17 10  1  0
 18 17  1  0
 19 16  2  0
 20 15  1  0
 21 19  1  0
  6  3  1  0
 20 21  2  0
  9 13  2  0
M  END
>  <DATABASE_ID>  (1) 
DB08986

>  <DATABASE_NAME>  (1) 
drugbank

>  <SMILES>  (1) 
CCNC1=NC2=CC=C(Cl)C=C2C(C)(O1)C1=CC=CC=C1

>  <INCHI_IDENTIFIER>  (1) 
InChI=1S/C17H17ClN2O/c1-3-19-16-20-15-10-9-13(18)11-14(15)17(2,21-16)12-7-5-4-6-8-12/h4-11H,3H2,1-2H3,(H,19,20)

>  <INCHI_KEY>  (1) 
IBYCYJFUEJQSMK-UHFFFAOYSA-N

>  <FORMULA>  (1) 
C17H17ClN2O

>  <MOLECULAR_WEIGHT>  (1) 
300.79

>  <EXACT_MASS>  (1) 
300.1029409

>  <JCHEM_ACCEPTOR_COUNT>  (1) 
3

>  <JCHEM_ATOM_COUNT>  (1) 
38

>  <JCHEM_AVERAGE_POLARIZABILITY>  (1) 
32.25148854510429

>  <JCHEM_BIOAVAILABILITY>  (1) 
1

>  <JCHEM_DONOR_COUNT>  (1) 
1

>  <JCHEM_FORMAL_CHARGE>  (1) 
0

>  <JCHEM_GHOSE_FILTER>  (1) 
1

>  <JCHEM_IUPAC>  (1) 
6-chloro-N-ethyl-4-methyl-4-phenyl-4H-3,1-benzoxazin-2-amine

>  <ALOGPS_LOGP>  (1) 
4.52

>  <JCHEM_LOGP>  (1) 
4.590647957666667

>  <ALOGPS_LOGS>  (1) 
-5.14

>  <JCHEM_MDDR_LIKE_RULE>  (1) 
0

>  <JCHEM_NUMBER_OF_RINGS>  (1) 
3

>  <JCHEM_PHYSIOLOGICAL_CHARGE>  (1) 
0

>  <JCHEM_PKA_STRONGEST_BASIC>  (1) 
5.179179486548087

>  <JCHEM_POLAR_SURFACE_AREA>  (1) 
33.62

>  <JCHEM_REFRACTIVITY>  (1) 
87.2307

>  <JCHEM_ROTATABLE_BOND_COUNT>  (1) 
2

>  <JCHEM_RULE_OF_FIVE>  (1) 
1

>  <ALOGPS_SOLUBILITY>  (1) 
2.16e-03 g/l

>  <JCHEM_TRADITIONAL_IUPAC>  (1) 
etifoxine

>  <JCHEM_VEBER_RULE>  (1) 
1

>  <DRUGBANK_ID>  (1) 
DB08986

>  <DRUG_GROUPS>  (1) 
approved; withdrawn

>  <GENERIC_NAME>  (1) 
Etifoxine

>  <SYNONYMS>  (1) 
Etifoxina; Etifoxine; Etifoxinum

>  <INTERNATIONAL_BRANDS>  (1) 
Exsist; Stresam

>  <SALTS>  (1) 
Etifoxine hydrochloride

$$$$
