
     RDKit          2D

 49 55  0  0  1  0  0  0  0  0999 V2000
    6.9767    0.6232    0.0000 C   0  0  0  0  0  0  0  0  0  0  0  0
    7.0629    1.4435    0.0000 N   0  0  0  0  0  0  0  0  0  0  0  0
    7.7773    1.8561    0.0000 C   0  0  0  0  0  0  0  0  0  0  0  0
    7.6057    2.6630    0.0000 N   0  0  0  0  0  0  0  0  0  0  0  0
    6.7852    2.7493    0.0000 C   0  0  0  0  0  0  0  0  0  0  0  0
    6.4498    1.9956    0.0000 N   0  0  0  0  0  0  0  0  0  0  0  0
    6.2230    0.2876    0.0000 C   0  0  0  0  0  0  0  0  0  0  0  0
    5.5555   -0.1973    0.0000 O   0  0  0  0  0  0  0  0  0  0  0  0
    4.8879    0.2876    0.0000 C   0  0  0  0  0  0  0  0  0  0  0  0
    5.1430    1.0722    0.0000 C   0  0  0  0  0  0  0  0  0  0  0  0
    5.9680    1.0722    0.0000 O   0  0  0  0  0  0  0  0  0  0  0  0
    4.1034    0.0326    0.0000 C   0  0  0  0  0  0  0  0  0  0  0  0
    3.4904    0.5847    0.0000 O   0  0  0  0  0  0  0  0  0  0  0  0
    2.7057    0.3297    0.0000 C   0  0  0  0  0  0  0  0  0  0  0  0
    2.5342   -0.4771    0.0000 C   0  0  0  0  0  0  0  0  0  0  0  0
    1.7495   -0.7321    0.0000 C   0  0  0  0  0  0  0  0  0  0  0  0
    1.1365   -0.1801    0.0000 C   0  0  0  0  0  0  0  0  0  0  0  0
    1.3081    0.6268    0.0000 C   0  0  0  0  0  0  0  0  0  0  0  0
    2.0928    0.8817    0.0000 C   0  0  0  0  0  0  0  0  0  0  0  0
    0.3519   -0.4350    0.0000 N   0  0  0  0  0  0  0  0  0  0  0  0
    0.1804   -1.2420    0.0000 C   0  0  0  0  0  0  0  0  0  0  0  0
   -0.6042   -1.4969    0.0000 C   0  0  0  0  0  0  0  0  0  0  0  0
   -1.2173   -0.9449    0.0000 N   0  0  0  0  0  0  0  0  0  0  0  0
   -1.0458   -0.1379    0.0000 C   0  0  0  0  0  0  0  0  0  0  0  0
   -0.2612    0.1170    0.0000 C   0  0  0  0  0  0  0  0  0  0  0  0
   -2.0020   -1.1998    0.0000 C   0  0  0  0  0  0  0  0  0  0  0  0
   -2.1735   -2.0069    0.0000 C   0  0  0  0  0  0  0  0  0  0  0  0
   -2.9581   -2.2616    0.0000 C   0  0  0  0  0  0  0  0  0  0  0  0
   -3.5711   -1.7097    0.0000 C   0  0  0  0  0  0  0  0  0  0  0  0
   -3.3996   -0.9027    0.0000 C   0  0  0  0  0  0  0  0  0  0  0  0
   -2.6150   -0.6478    0.0000 C   0  0  0  0  0  0  0  0  0  0  0  0
   -4.3558   -1.9647    0.0000 N   0  0  0  0  0  0  0  0  0  0  0  0
   -5.0232   -1.4798    0.0000 C   0  0  0  0  0  0  0  0  0  0  0  0
   -5.0232   -0.6547    0.0000 O   0  0  0  0  0  0  0  0  0  0  0  0
   -5.6906   -1.9647    0.0000 N   0  0  0  0  0  0  0  0  0  0  0  0
   -5.4357   -2.7493    0.0000 N   0  0  0  0  0  0  0  0  0  0  0  0
   -4.6107   -2.7493    0.0000 C   0  0  0  0  0  0  0  0  0  0  0  0
   -6.4753   -1.7097    0.0000 C   0  0  0  0  0  0  0  0  0  0  0  0
   -7.0884   -2.2616    0.0000 C   0  0  0  0  0  0  0  0  0  0  0  0
   -7.8730   -2.0067    0.0000 C   0  0  0  0  0  0  0  0  0  0  0  0
   -6.6467   -0.9027    0.0000 C   0  0  0  0  0  0  0  0  0  0  0  0
    6.6354   -0.4268    0.0000 C   0  0  0  0  0  0  0  0  0  0  0  0
    7.4605   -0.4268    0.0000 C   0  0  0  0  0  0  0  0  0  0  0  0
    7.8730    0.2876    0.0000 Cl  0  0  0  0  0  0  0  0  0  0  0  0
    7.8730   -1.1413    0.0000 C   0  0  0  0  0  0  0  0  0  0  0  0
    7.4605   -1.8558    0.0000 C   0  0  0  0  0  0  0  0  0  0  0  0
    6.6354   -1.8558    0.0000 C   0  0  0  0  0  0  0  0  0  0  0  0
    6.2230   -1.1413    0.0000 C   0  0  0  0  0  0  0  0  0  0  0  0
    7.8730   -2.5702    0.0000 Cl  0  0  0  0  0  0  0  0  0  0  0  0
  1  2  1  0
  2  3  1  0
  3  4  2  0
  4  5  1  0
  6  5  2  0
  2  6  1  0
  7  1  1  1
  7  8  1  0
  8  9  1  0
  9 10  1  0
 11 10  1  0
  7 11  1  0
  9 12  1  1
 12 13  1  0
 13 14  1  0
 14 15  2  0
 15 16  1  0
 16 17  2  0
 18 17  1  0
 19 18  2  0
 14 19  1  0
 17 20  1  0
 20 21  1  0
 21 22  1  0
 22 23  1  0
 24 23  1  0
 25 24  1  0
 20 25  1  0
 23 26  1  0
 26 27  2  0
 27 28  1  0
 28 29  2  0
 30 29  1  0
 31 30  2  0
 26 31  1  0
 29 32  1  0
 32 33  1  0
 33 34  2  0
 33 35  1  0
 35 36  1  0
 37 36  2  0
 32 37  1  0
 35 38  1  0
 38 39  1  0
 39 40  1  0
 38 41  1  0
  7 42  1  0
 42 43  2  0
 43 44  1  0
 43 45  1  0
 45 46  2  0
 47 46  1  0
 48 47  2  0
 42 48  1  0
 46 49  1  0
M  END
>  <DATABASE_ID>  (1) 
DB01167

>  <DATABASE_NAME>  (1) 
drugbank

>  <SMILES>  (1) 
CCC(C)N1N=CN(C1=O)C1=CC=C(C=C1)N1CCN(CC1)C1=CC=C(OC[C@H]2CO[C@@](CN3C=NC=N3)(O2)C2=C(Cl)C=C(Cl)C=C2)C=C1

>  <INCHI_IDENTIFIER>  (1) 
InChI=1S/C35H38Cl2N8O4/c1-3-25(2)45-34(46)44(24-40-45)29-7-5-27(6-8-29)41-14-16-42(17-15-41)28-9-11-30(12-10-28)47-19-31-20-48-35(49-31,21-43-23-38-22-39-43)32-13-4-26(36)18-33(32)37/h4-13,18,22-25,31H,3,14-17,19-21H2,1-2H3/t25?,31-,35-/m0/s1

>  <INCHI_KEY>  (1) 
VHVPQPYKVGDNFY-ZPGVKDDISA-N

>  <FORMULA>  (1) 
C35H38Cl2N8O4

>  <MOLECULAR_WEIGHT>  (1) 
705.633

>  <EXACT_MASS>  (1) 
704.239307158

>  <JCHEM_ACCEPTOR_COUNT>  (1) 
9

>  <JCHEM_ATOM_COUNT>  (1) 
87

>  <JCHEM_AVERAGE_NEUTRAL_MICROSPECIES_CHARGE>  (1) 
1.988903761341721

>  <JCHEM_AVERAGE_POLARIZABILITY>  (1) 
74.49827957634713

>  <JCHEM_BIOAVAILABILITY>  (1) 
0

>  <JCHEM_DONOR_COUNT>  (1) 
0

>  <JCHEM_FORMAL_CHARGE>  (1) 
0

>  <JCHEM_GHOSE_FILTER>  (1) 
0

>  <JCHEM_IUPAC>  (1) 
1-(butan-2-yl)-4-{4-[4-(4-{[(2R,4S)-2-(2,4-dichlorophenyl)-2-[(1H-1,2,4-triazol-1-yl)methyl]-1,3-dioxolan-4-yl]methoxy}phenyl)piperazin-1-yl]phenyl}-4,5-dihydro-1H-1,2,4-triazol-5-one

>  <ALOGPS_LOGP>  (1) 
5.48

>  <JCHEM_LOGP>  (1) 
7.311371119666667

>  <ALOGPS_LOGS>  (1) 
-4.86

>  <JCHEM_MDDR_LIKE_RULE>  (1) 
1

>  <JCHEM_NEUTRAL_CHARGE>  (1) 
0

>  <JCHEM_NUMBER_OF_RINGS>  (1) 
7

>  <JCHEM_PHYSIOLOGICAL_CHARGE>  (1) 
0

>  <JCHEM_PKA_STRONGEST_BASIC>  (1) 
3.9140674866982224

>  <JCHEM_POLAR_SURFACE_AREA>  (1) 
100.78999999999999

>  <JCHEM_REFRACTIVITY>  (1) 
200.39999999999995

>  <JCHEM_ROTATABLE_BOND_COUNT>  (1) 
11

>  <JCHEM_RULE_OF_FIVE>  (1) 
0

>  <ALOGPS_SOLUBILITY>  (1) 
9.64e-03 g/l

>  <JCHEM_TRADITIONAL_IUPAC>  (1) 
itraconazole

>  <JCHEM_VEBER_RULE>  (1) 
0

>  <DRUGBANK_ID>  (1) 
DB01167

>  <SECONDARY_ACCESSION_NUMBERS>  (1) 
APRD00040

>  <DRUG_GROUPS>  (1) 
approved; investigational

>  <GENERIC_NAME>  (1) 
Itraconazole

>  <SYNONYMS>  (1) 
(±)-1-SEC-BUTYL-4-(P-(4-(P-(((2R*,4S*)-2-(2,4-DICHLOROPHENYL)-2-(1H-1,2,4-TRIAZOL-1-YLMETHYL)-1,3-DIOXOLAN-4-YL)METHOXY)PHENYL)-1-PIPERAZINYL)PHENYL)-.DELTA.(SUP 2)-1,2,4-TRIAZOLIN-5-ONE; 3H-1,2,4-TRIAZOL-3-ONE, 4-(4-(4-(4-((2-(2,4-DICHLOROPHENYL)-2-(1H-1,2,4-TRIAZOL-1-YLMETHYL)-1,3-DIOXOLAN-4-YL)METHOXY)PHENYL)-1-PIPERAZINYL)PHENYL)-2,4-DIHYDRO-2-(1-METHYLPROPYL)-; Itraconazol; Itraconazole; ITRACONAZOLE COMPONENT OF SUBA-ITRACONAZOLE; Itraconazolum; Oriconazole

>  <PRODUCTS>  (1) 
Ciclopirox 3% / Itraconazole 5% / Urea 20%; Fluconazole 4% / Ibuprofen 2% / Itraconazole 1% / Terbinafine HCl 4%; Itraconazole; Itraconazole Oral; Jamp Itraconazole Oral Solution; Mint-itraconazole; Odan Itraconazole; Onmel; Sporanox; Tolsura

>  <INTERNATIONAL_BRANDS>  (1) 
Itrizole; Oriconazole; Sporal

$$$$
