
     RDKit          2D

 10  9  0  0  0  0  0  0  0  0999 V2000
   -1.0717   -0.2062    0.0000 C   0  0  0  0  0  0  0  0  0  0  0  0
   -0.3572    0.2062    0.0000 C   0  0  0  0  0  0  0  0  0  0  0  0
    1.0717    0.2063    0.0000 C   0  0  0  0  0  0  0  0  0  0  0  0
    0.3572   -0.2062    0.0000 C   0  0  0  0  0  0  0  0  0  0  0  0
    1.7862   -0.2061    0.0000 O   0  0  0  0  0  0  0  0  0  0  0  0
   -1.7862    0.2062    0.0000 O   0  0  0  0  0  0  0  0  0  0  0  0
    1.0717    1.0312    0.0000 O   0  0  0  0  0  0  0  0  0  0  0  0
   -1.0717   -1.0312    0.0000 O   0  0  0  0  0  0  0  0  0  0  0  0
    0.3572   -1.0312    0.0000 O   0  0  0  0  0  0  0  0  0  0  0  0
   -0.3572    1.0312    0.0000 O   0  0  0  0  0  0  0  0  0  0  0  0
  8  1  2  0
  1  2  1  0
  2 10  1  6
  7  3  2  0
  2  4  1  0
  4  3  1  0
  4  9  1  6
  5  3  1  0
  6  1  1  0
M  END
>  <DATABASE_ID>  (1) 
DB09459

>  <DATABASE_NAME>  (1) 
drugbank

>  <SMILES>  (1) 
O[C@H]([C@@H](O)C(O)=O)C(O)=O

>  <INCHI_IDENTIFIER>  (1) 
InChI=1S/C4H6O6/c5-1(3(7)8)2(6)4(9)10/h1-2,5-6H,(H,7,8)(H,9,10)/t1-,2-/m1/s1

>  <INCHI_KEY>  (1) 
FEWJPZIEWOKRBE-JCYAYHJZSA-N

>  <FORMULA>  (1) 
C4H6O6

>  <MOLECULAR_WEIGHT>  (1) 
150.0868

>  <EXACT_MASS>  (1) 
150.016437924

>  <JCHEM_ACCEPTOR_COUNT>  (1) 
6

>  <JCHEM_ATOM_COUNT>  (1) 
16

>  <JCHEM_AVERAGE_POLARIZABILITY>  (1) 
11.327063324959603

>  <JCHEM_BIOAVAILABILITY>  (1) 
1

>  <JCHEM_DONOR_COUNT>  (1) 
4

>  <JCHEM_FORMAL_CHARGE>  (1) 
0

>  <JCHEM_GHOSE_FILTER>  (1) 
0

>  <JCHEM_IUPAC>  (1) 
(2R,3R)-2,3-dihydroxybutanedioic acid

>  <ALOGPS_LOGP>  (1) 
-1.27

>  <JCHEM_LOGP>  (1) 
-1.8287998886666665

>  <ALOGPS_LOGS>  (1) 
0.03

>  <JCHEM_MDDR_LIKE_RULE>  (1) 
0

>  <JCHEM_NUMBER_OF_RINGS>  (1) 
0

>  <JCHEM_PHYSIOLOGICAL_CHARGE>  (1) 
-2

>  <JCHEM_PKA>  (1) 
4.792876457889947

>  <JCHEM_PKA_STRONGEST_ACIDIC>  (1) 
2.719041003817166

>  <JCHEM_PKA_STRONGEST_BASIC>  (1) 
-4.330574673439462

>  <JCHEM_POLAR_SURFACE_AREA>  (1) 
115.06

>  <JCHEM_REFRACTIVITY>  (1) 
26.2134

>  <JCHEM_ROTATABLE_BOND_COUNT>  (1) 
3

>  <JCHEM_RULE_OF_FIVE>  (1) 
1

>  <ALOGPS_SOLUBILITY>  (1) 
1.61e+02 g/l

>  <JCHEM_TRADITIONAL_IUPAC>  (1) 
L(+)-tartaric acid

>  <JCHEM_VEBER_RULE>  (1) 
0

>  <DRUGBANK_ID>  (1) 
DB09459

>  <DRUG_GROUPS>  (1) 
approved

>  <GENERIC_NAME>  (1) 
L-tartaric acid

>  <SYNONYMS>  (1) 
(+)-(R,R)-tartaric acid; (+)-L-tartaric acid; (+)-Tartaric acid; (+)-Weinsäure; (2R,3R)-2,3-Dihydroxybernsteinsäure; (2R,3R)-2,3-dihydroxysuccinic acid; (2R,3R)-Tartaric acid; (R,R)-(+)-tartaric acid; (R,R)-Tartaric acid; ácido tartárico; L-threaric acid; Rechtsweinsäure; Tartaric acid; Weinsteinsäure

>  <PRODUCTS>  (1) 
Baros Effervescent Granules; Bicaruvas; Brioschi Childrens Effervescent Antacid; Brioschi Effervescent Antacid; E-Z-gas 2 Granules; Gingera Effervescent Antacid; Unik Zoru Pwr; Unik Zoru Tab; Urasal Granules

$$$$
