
     RDKit          2D

 19 19  0  0  0  0  0  0  0  0999 V2000
   -3.5211    2.4750    0.0000 C   0  0  0  0  0  0  0  0  0  0  0  0
   -2.6961    2.4750    0.0000 C   0  0  0  0  0  0  0  0  0  0  0  0
   -2.2836    3.1895    0.0000 O   0  0  0  0  0  0  0  0  0  0  0  0
   -1.4586    3.1895    0.0000 C   0  0  0  0  0  0  0  0  0  0  0  0
   -1.0461    3.9039    0.0000 C   0  0  0  0  0  0  0  0  0  0  0  0
   -0.2211    3.9039    0.0000 C   0  0  0  0  0  0  0  0  0  0  0  0
    0.1914    3.1895    0.0000 C   0  0  0  0  0  0  0  0  0  0  0  0
   -0.2211    2.4750    0.0000 C   0  0  0  0  0  0  0  0  0  0  0  0
   -1.0461    2.4750    0.0000 C   0  0  0  0  0  0  0  0  0  0  0  0
    1.0164    3.1895    0.0000 C   0  0  0  0  0  0  0  0  0  0  0  0
    1.4289    3.9039    0.0000 O   0  0  0  0  0  0  0  0  0  0  0  0
    1.4289    2.4750    0.0000 O   0  0  0  0  0  0  0  0  0  0  0  0
    2.2539    2.4750    0.0000 C   0  0  0  0  0  0  0  0  0  0  0  0
    2.6664    1.7605    0.0000 C   0  0  0  0  0  0  0  0  0  0  0  0
    3.4914    1.7605    0.0000 N   0  0  0  0  0  0  0  0  0  0  0  0
    3.9039    1.0461    0.0000 C   0  0  0  0  0  0  0  0  0  0  0  0
    4.7289    1.0461    0.0000 C   0  0  0  0  0  0  0  0  0  0  0  0
    3.9039    2.4750    0.0000 C   0  0  0  0  0  0  0  0  0  0  0  0
    4.7289    2.4750    0.0000 C   0  0  0  0  0  0  0  0  0  0  0  0
  1  2  1  0
  2  3  1  0
  3  4  1  0
  4  5  2  0
  5  6  1  0
  6  7  2  0
  7  8  1  0
  8  9  2  0
  4  9  1  0
  7 10  1  0
 10 11  2  0
 10 12  1  0
 12 13  1  0
 13 14  1  0
 14 15  1  0
 15 16  1  0
 16 17  1  0
 15 18  1  0
 18 19  1  0
M  END
>  <DATABASE_ID>  (1) 
DB19380

>  <DATABASE_NAME>  (1) 
drugbank

>  <SMILES>  (1) 
CCOC1=CC=C(C=C1)C(=O)OCCN(CC)CC

>  <INCHI_IDENTIFIER>  (1) 
InChI=1S/C15H23NO3/c1-4-16(5-2)11-12-19-15(17)13-7-9-14(10-8-13)18-6-3/h7-10H,4-6,11-12H2,1-3H3

>  <INCHI_KEY>  (1) 
OWWVHQUOYSPNNE-UHFFFAOYSA-N

>  <FORMULA>  (1) 
C15H23NO3

>  <MOLECULAR_WEIGHT>  (1) 
265.353

>  <EXACT_MASS>  (1) 
265.167793605

>  <DRUGBANK_ID>  (1) 
DB19380

>  <DRUG_GROUPS>  (1) 
approved; withdrawn

>  <GENERIC_NAME>  (1) 
Parethoxycaine

>  <SYNONYMS>  (1) 
Parethoxycaine

>  <SALTS>  (1) 
Parethoxycaine Hydrochloride

$$$$
