
     RDKit          2D

 44 48  0  0  0  0  0  0  0  0999 V2000
    1.4791   -3.8743    0.0000 C   0  0  0  0  0  0  0  0  0  0  0  0
    1.0666   -3.1599    0.0000 C   0  0  0  0  0  0  0  0  0  0  0  0
    0.2416   -3.1599    0.0000 N   0  0  0  0  0  0  0  0  0  0  0  0
   -0.1709   -3.8743    0.0000 C   0  0  0  0  0  0  0  0  0  0  0  0
   -0.9959   -3.8743    0.0000 C   0  0  0  0  0  0  0  0  0  0  0  0
    0.2416   -4.5888    0.0000 C   0  0  0  0  0  0  0  0  0  0  0  0
   -0.1709   -2.4454    0.0000 C   0  0  0  0  0  0  0  0  0  0  0  0
    0.2416   -1.7309    0.0000 O   0  0  0  0  0  0  0  0  0  0  0  0
   -0.9959   -2.4454    0.0000 C   0  0  0  0  0  0  0  0  0  0  0  0
   -1.4084   -3.1599    0.0000 C   0  0  0  0  0  0  0  0  0  0  0  0
   -2.2334   -3.1599    0.0000 C   0  0  0  0  0  0  0  0  0  0  0  0
   -2.6459   -3.8743    0.0000 F   0  0  0  0  0  0  0  0  0  0  0  0
   -2.6459   -2.4454    0.0000 C   0  0  0  0  0  0  0  0  0  0  0  0
   -2.2334   -1.7309    0.0000 C   0  0  0  0  0  0  0  0  0  0  0  0
   -1.4084   -1.7309    0.0000 C   0  0  0  0  0  0  0  0  0  0  0  0
   -0.9959   -1.0164    0.0000 O   0  0  0  0  0  0  0  0  0  0  0  0
   -1.4084   -0.3020    0.0000 C   0  0  0  0  0  0  0  0  0  0  0  0
   -2.2334   -0.3020    0.0000 C   0  0  0  0  0  0  0  0  0  0  0  0
   -2.6459    0.4125    0.0000 N   0  0  0  0  0  0  0  0  0  0  0  0
   -2.2334    1.1270    0.0000 C   0  0  0  0  0  0  0  0  0  0  0  0
   -1.4084    1.1270    0.0000 N   0  0  0  0  0  0  0  0  0  0  0  0
   -0.9959    0.4125    0.0000 C   0  0  0  0  0  0  0  0  0  0  0  0
   -0.1709    0.4125    0.0000 N   0  0  0  0  0  0  0  0  0  0  0  0
    0.4125    0.9959    0.0000 C   0  0  0  0  0  0  0  0  0  0  0  0
    0.9959    0.4125    0.0000 C   0  0  0  0  0  0  0  0  0  0  0  0
    0.4125   -0.1709    0.0000 C   0  0  0  0  0  0  0  0  0  0  0  0
    1.4084    1.1270    0.0000 C   0  0  0  0  0  0  0  0  0  0  0  0
    2.2334    1.1270    0.0000 C   0  0  0  0  0  0  0  0  0  0  0  0
    2.6459    0.4125    0.0000 N   0  0  0  0  0  0  0  0  0  0  0  0
    3.4709    0.4125    0.0000 C   0  0  0  0  0  0  0  0  0  0  0  0
    3.8834   -0.3020    0.0000 C   0  0  0  0  0  0  0  0  0  0  0  0
    4.7084   -0.3020    0.0000 C   0  0  0  0  0  0  0  0  0  0  0  0
    5.1209   -1.0164    0.0000 C   0  0  0  0  0  0  0  0  0  0  0  0
    4.7084   -1.7309    0.0000 C   0  0  0  0  0  0  0  0  0  0  0  0
    3.8834   -1.7309    0.0000 C   0  0  0  0  0  0  0  0  0  0  0  0
    3.4709   -1.0164    0.0000 C   0  0  0  0  0  0  0  0  0  0  0  0
    5.1209   -2.4454    0.0000 N   0  0  0  0  0  0  0  0  0  0  0  0
    5.9459   -2.4454    0.0000 S   0  0  0  0  0  0  0  0  0  0  0  0
    5.9459   -3.2704    0.0000 O   0  0  0  0  0  0  0  0  0  0  0  0
    5.9459   -1.6204    0.0000 O   0  0  0  0  0  0  0  0  0  0  0  0
    6.7709   -2.4454    0.0000 C   0  0  0  0  0  0  0  0  0  0  0  0
    7.1834   -1.7309    0.0000 C   0  0  0  0  0  0  0  0  0  0  0  0
    2.2334   -0.3020    0.0000 C   0  0  0  0  0  0  0  0  0  0  0  0
    1.4084   -0.3020    0.0000 C   0  0  0  0  0  0  0  0  0  0  0  0
  1  2  1  0
  2  3  1  0
  3  4  1  0
  4  5  1  0
  4  6  1  0
  3  7  1  0
  7  8  2  0
  7  9  1  0
  9 10  2  0
 10 11  1  0
 11 12  1  0
 11 13  2  0
 13 14  1  0
 14 15  2  0
  9 15  1  0
 15 16  1  0
 16 17  1  0
 17 18  2  0
 18 19  1  0
 19 20  2  0
 20 21  1  0
 21 22  2  0
 17 22  1  0
 22 23  1  0
 23 24  1  0
 24 25  1  0
 25 26  1  0
 23 26  1  0
 25 27  1  0
 27 28  1  0
 28 29  1  0
 29 30  1  0
 31 30  1  1
 31 32  1  0
 32 33  1  0
 34 33  1  0
 34 35  1  0
 35 36  1  0
 31 36  1  0
 34 37  1  6
 37 38  1  0
 38 39  2  0
 38 40  2  0
 38 41  1  0
 41 42  1  0
 29 43  1  0
 43 44  1  0
 25 44  1  0
M  END
>  <DATABASE_ID>  (1) 
DB18515

>  <DATABASE_NAME>  (1) 
drugbank

>  <SMILES>  (1) 
CCN(C(C)C)C(=O)C1=CC(F)=CC=C1OC1=CN=CN=C1N1CC2(C1)CCN(C[C@H]1CC[C@@H](CC1)NS(=O)(=O)CC)CC2

>  <INCHI_IDENTIFIER>  (1) 
InChI=1S/C32H47FN6O4S/c1-5-39(23(3)4)31(40)27-17-25(33)9-12-28(27)43-29-18-34-22-35-30(29)38-20-32(21-38)13-15-37(16-14-32)19-24-7-10-26(11-8-24)36-44(41,42)6-2/h9,12,17-18,22-24,26,36H,5-8,10-11,13-16,19-21H2,1-4H3/t24-,26-

>  <INCHI_KEY>  (1) 
FRVSRBKUQZKTOW-YOCNBXQISA-N

>  <FORMULA>  (1) 
C32H47FN6O4S

>  <MOLECULAR_WEIGHT>  (1) 
630.82

>  <EXACT_MASS>  (1) 
630.336353354

>  <JCHEM_ACCEPTOR_COUNT>  (1) 
7

>  <JCHEM_ATOM_COUNT>  (1) 
91

>  <JCHEM_AVERAGE_NEUTRAL_MICROSPECIES_CHARGE>  (1) 
2.8145572841455446

>  <JCHEM_AVERAGE_POLARIZABILITY>  (1) 
69.55042778743552

>  <JCHEM_BIOAVAILABILITY>  (1) 
1

>  <JCHEM_DONOR_COUNT>  (1) 
1

>  <JCHEM_FORMAL_CHARGE>  (1) 
0

>  <JCHEM_GHOSE_FILTER>  (1) 
0

>  <JCHEM_IUPAC>  (1) 
N-ethyl-5-fluoro-N-(propan-2-yl)-2-{[4-(7-{[(1r,4r)-4-ethanesulfonamidocyclohexyl]methyl}-2,7-diazaspiro[3.5]nonan-2-yl)pyrimidin-5-yl]oxy}benzamide

>  <JCHEM_LOGP>  (1) 
3.3701884933333326

>  <JCHEM_MDDR_LIKE_RULE>  (1) 
1

>  <JCHEM_NEUTRAL_CHARGE>  (1) 
1

>  <JCHEM_NUMBER_OF_RINGS>  (1) 
5

>  <JCHEM_PHYSIOLOGICAL_CHARGE>  (1) 
1

>  <JCHEM_PKA_STRONGEST_ACIDIC>  (1) 
11.810824092551416

>  <JCHEM_PKA_STRONGEST_BASIC>  (1) 
9.348380259966476

>  <JCHEM_POLAR_SURFACE_AREA>  (1) 
107.97

>  <JCHEM_REFRACTIVITY>  (1) 
171.87919999999997

>  <JCHEM_ROTATABLE_BOND_COUNT>  (1) 
10

>  <JCHEM_RULE_OF_FIVE>  (1) 
0

>  <JCHEM_TRADITIONAL_IUPAC>  (1) 
N-ethyl-5-fluoro-N-isopropyl-2-{[4-(7-{[(1r,4r)-4-ethanesulfonamidocyclohexyl]methyl}-2,7-diazaspiro[3.5]nonan-2-yl)pyrimidin-5-yl]oxy}benzamide

>  <JCHEM_VEBER_RULE>  (1) 
0

>  <DRUGBANK_ID>  (1) 
DB18515

>  <DRUG_GROUPS>  (1) 
approved; investigational

>  <GENERIC_NAME>  (1) 
Revumenib

>  <SYNONYMS>  (1) 
Benzamide, n-ethyl-2-((4-(7-((trans-4-((ethylsulfonyl)amino)cyclohexyl)methyl)-2,7-diazaspiro(3.5)non-2-yl)-5-pyrimidinyl)oxy)-5-fluoro-n-(1-methylethyl)-; Revumenib

>  <PRODUCTS>  (1) 
Revuforj

>  <SALTS>  (1) 
Revumenib citrate; Revumenib sesquifumarate

$$$$
