
     RDKit          2D

 35 39  0  0  0  0  0  0  0  0999 V2000
   -4.7456    0.4124    0.0000 C   0  0  0  0  0  0  0  0  0  0  0  0
   -4.7456   -0.4126    0.0000 C   0  0  0  0  0  0  0  0  0  0  0  0
   -4.0438   -0.8253    0.0000 C   0  0  0  0  0  0  0  0  0  0  0  0
   -3.2598   -0.4126    0.0000 C   0  0  0  0  0  0  0  0  0  0  0  0
   -3.2598    0.4124    0.0000 C   0  0  0  0  0  0  0  0  0  0  0  0
   -4.0438    0.8252    0.0000 C   0  0  0  0  0  0  0  0  0  0  0  0
   -2.5584   -0.8253    0.0000 C   0  0  0  0  0  0  0  0  0  0  0  0
   -1.8568   -0.4126    0.0000 N   0  0  0  0  0  0  0  0  0  0  0  0
   -1.8568    0.4124    0.0000 C   0  0  0  0  0  0  0  0  0  0  0  0
   -2.5584    0.8252    0.0000 N   0  0  0  0  0  0  0  0  0  0  0  0
   -2.5584   -1.6506    0.0000 C   0  0  0  0  0  0  0  0  0  0  0  0
   -1.1553    0.8252    0.0000 C   0  0  0  0  0  0  0  0  0  0  0  0
   -0.4538    0.4124    0.0000 N   0  0  0  0  0  0  0  0  0  0  0  0
   -0.4538   -0.4126    0.0000 C   0  0  0  0  0  0  0  0  0  0  0  0
    0.2887   -0.8253    0.0000 N   0  0  0  0  0  0  0  0  0  0  0  0
    0.9902   -0.4126    0.0000 C   0  0  0  0  0  0  0  0  0  0  0  0
    0.9902    0.4124    0.0000 C   0  0  0  0  0  0  0  0  0  0  0  0
    0.2887    0.8252    0.0000 C   0  0  0  0  0  0  0  0  0  0  0  0
    0.2887    1.6506    0.0000 O   0  0  0  0  0  0  0  0  0  0  0  0
   -1.1553   -0.8253    0.0000 O   0  0  0  0  0  0  0  0  0  0  0  0
    0.2887   -1.6506    0.0000 C   0  0  0  0  0  0  0  0  0  0  0  0
    1.7745   -0.6601    0.0000 N   0  0  0  0  0  0  0  0  0  0  0  0
    2.2696    0.0000    0.0000 C   0  0  0  0  0  0  0  0  0  0  0  0
    1.7745    0.6600    0.0000 N   0  0  0  0  0  0  0  0  0  0  0  0
    3.0949    0.0000    0.0000 N   0  0  0  0  0  0  0  0  0  0  0  0
    3.5076   -0.7014    0.0000 C   0  0  0  0  0  0  0  0  0  0  0  0
    4.3329   -0.7014    0.0000 C   0  0  0  0  0  0  0  0  0  0  0  0
    4.7456    0.0000    0.0000 C   0  0  0  0  0  0  0  0  0  0  0  0
    4.3329    0.7013    0.0000 C   0  0  0  0  0  0  0  0  0  0  0  0
    3.5076    0.7013    0.0000 C   0  0  0  0  0  0  0  0  0  0  0  0
    4.7456   -1.4442    0.0000 N   0  0  0  0  0  0  0  0  0  0  0  0
    2.1871    1.3616    0.0000 C   0  0  0  0  0  0  0  0  0  0  0  0
    3.0123    1.3616    0.0000 C   0  0  0  0  0  0  0  0  0  0  0  0
    3.8377    1.3616    0.0000 C   0  0  0  0  0  0  0  0  0  0  0  0
    4.6631    1.3616    0.0000 C   0  0  0  0  0  0  0  0  0  0  0  0
  1  2  2  0
  2  3  1  0
  3  4  2  0
  4  5  1  0
  5  6  2  0
  1  6  1  0
  4  7  1  0
  7  8  2  0
  8  9  1  0
  9 10  2  0
  5 10  1  0
  7 11  1  0
  9 12  1  0
 12 13  1  0
 13 14  1  0
 14 15  1  0
 15 16  1  0
 16 17  2  0
 17 18  1  0
 13 18  1  0
 18 19  2  0
 14 20  2  0
 15 21  1  0
 16 22  1  0
 22 23  2  0
 23 24  1  0
 17 24  1  0
 23 25  1  0
 25 26  1  0
 26 27  1  0
 27 28  1  0
 28 29  1  0
 29 30  1  0
 25 30  1  0
 27 31  1  1
 32 33  1  0
 32 24  1  0
 33 34  3  0
 34 35  1  0
M  END
>  <DATABASE_ID>  (1) 
DB08882

>  <DATABASE_NAME>  (1) 
drugbank

>  <SMILES>  (1) 
CC#CCN1C(=NC2=C1C(=O)N(CC1=NC3=C(C=CC=C3)C(C)=N1)C(=O)N2C)N1CCC[C@@H](N)C1

>  <INCHI_IDENTIFIER>  (1) 
InChI=1S/C25H28N8O2/c1-4-5-13-32-21-22(29-24(32)31-12-8-9-17(26)14-31)30(3)25(35)33(23(21)34)15-20-27-16(2)18-10-6-7-11-19(18)28-20/h6-7,10-11,17H,8-9,12-15,26H2,1-3H3/t17-/m1/s1

>  <INCHI_KEY>  (1) 
LTXREWYXXSTFRX-QGZVFWFLSA-N

>  <FORMULA>  (1) 
C25H28N8O2

>  <MOLECULAR_WEIGHT>  (1) 
472.5422

>  <EXACT_MASS>  (1) 
472.23352218

>  <JCHEM_ACCEPTOR_COUNT>  (1) 
7

>  <JCHEM_ATOM_COUNT>  (1) 
63

>  <JCHEM_AVERAGE_NEUTRAL_MICROSPECIES_CHARGE>  (1) 
0.9987134774262996

>  <JCHEM_AVERAGE_POLARIZABILITY>  (1) 
51.23805993897324

>  <JCHEM_BIOAVAILABILITY>  (1) 
1

>  <JCHEM_DONOR_COUNT>  (1) 
1

>  <JCHEM_FORMAL_CHARGE>  (1) 
0

>  <JCHEM_GHOSE_FILTER>  (1) 
0

>  <JCHEM_IUPAC>  (1) 
8-[(3R)-3-aminopiperidin-1-yl]-7-(but-2-yn-1-yl)-3-methyl-1-[(4-methylquinazolin-2-yl)methyl]-2,3,6,7-tetrahydro-1H-purine-2,6-dione

>  <ALOGPS_LOGP>  (1) 
2.62

>  <JCHEM_LOGP>  (1) 
2.8026328140000007

>  <ALOGPS_LOGS>  (1) 
-3.97

>  <JCHEM_MDDR_LIKE_RULE>  (1) 
0

>  <JCHEM_NEUTRAL_CHARGE>  (1) 
1

>  <JCHEM_NUMBER_OF_RINGS>  (1) 
5

>  <JCHEM_PHYSIOLOGICAL_CHARGE>  (1) 
1

>  <JCHEM_PKA_STRONGEST_BASIC>  (1) 
9.863575389806465

>  <JCHEM_POLAR_SURFACE_AREA>  (1) 
113.47999999999999

>  <JCHEM_REFRACTIVITY>  (1) 
133.43240000000003

>  <JCHEM_ROTATABLE_BOND_COUNT>  (1) 
5

>  <JCHEM_RULE_OF_FIVE>  (1) 
1

>  <ALOGPS_SOLUBILITY>  (1) 
5.02e-02 g/l

>  <JCHEM_TRADITIONAL_IUPAC>  (1) 
fidaxomicin

>  <JCHEM_VEBER_RULE>  (1) 
0

>  <DRUGBANK_ID>  (1) 
DB08882

>  <DRUG_GROUPS>  (1) 
approved; investigational

>  <GENERIC_NAME>  (1) 
Linagliptin

>  <SYNONYMS>  (1) 
(R)-8-(3-aminopiperidin-1-yl)-7-but-2-ynyl-3-methyl-1-(4-methylquinazolin-2-ylmethyl)-3,7-dihydro-purine-2,6-dione; Linagliptin; Linagliptina

>  <PRODUCTS>  (1) 
Glyxambi; Jentadueto; Jentadueto XR; Linagliptin; Linagliptin and metformin hydrochloride; Tradjenta; Trajenta; Trijardy XR

>  <INTERNATIONAL_BRANDS>  (1) 
Tradjenta

$$$$
