
     RDKit          2D

 17 17  0  0  1  0  0  0  0  0999 V2000
    0.7145    5.3625    0.0000 C   0  0  0  0  0  0  0  0  0  0  0  0
    1.4289    4.1250    0.0000 C   0  0  0  0  0  0  0  0  0  0  0  0
    0.7145   -1.2375    0.0000 C   0  0  0  0  0  0  0  0  0  0  0  0
    1.5395    2.0625    0.0000 C   0  0  0  0  0  0  0  0  0  0  0  0
   -0.0000    3.3000    0.0000 C   0  0  0  0  0  0  0  0  0  0  0  0
   -0.0000    4.1250    0.0000 C   0  0  0  0  0  0  0  0  0  0  0  0
    1.4289   -0.0000    0.0000 C   0  0  0  0  0  0  0  0  0  0  0  0
    0.0000   -0.0000    0.0000 C   0  0  0  0  0  0  0  0  0  0  0  0
    1.4289    0.8250    0.0000 C   0  0  0  0  0  0  0  0  0  0  0  0
    0.0000    0.8250    0.0000 C   0  0  0  0  0  0  0  0  0  0  0  0
    0.7145    2.8875    0.0000 C   0  0  0  0  0  0  0  0  0  0  0  0
    0.7145    4.5375    0.0000 C   0  0  0  0  0  0  0  0  0  0  0  0
    0.7145   -0.4125    0.0000 C   0  0  0  0  0  0  0  0  0  0  0  0
    0.7145    1.2375    0.0000 C   0  0  0  0  0  0  0  0  0  0  0  0
    0.7145    2.0625    0.0000 C   0  0  0  0  0  0  0  0  0  0  0  0
   -0.1105    2.0625    0.0000 O   0  0  0  0  0  0  0  0  0  0  0  0
    1.4289    1.6500    0.0000 H   0  0  0  0  0  0  0  0  0  0  0  0
  6  5  1  0
  9  7  1  0
 10  8  1  0
 11  5  1  0
 12  1  1  0
 12  2  1  0
 12  6  2  0
 13  3  1  0
 13  7  2  0
 13  8  1  0
 14  9  1  0
 14 10  1  0
 15  4  1  6
 15 11  1  0
 14 15  1  0
 15 16  1  0
 14 17  1  1
M  END
>  <DATABASE_ID>  (1) 
DB13153

>  <DATABASE_NAME>  (1) 
drugbank

>  <SMILES>  (1) 
[H][C@@]1(CCC(C)=CC1)[C@@](C)(O)CCC=C(C)C

>  <INCHI_IDENTIFIER>  (1) 
InChI=1S/C15H26O/c1-12(2)6-5-11-15(4,16)14-9-7-13(3)8-10-14/h6-7,14,16H,5,8-11H2,1-4H3/t14-,15+/m1/s1

>  <INCHI_KEY>  (1) 
RGZSQWQPBWRIAQ-CABCVRRESA-N

>  <FORMULA>  (1) 
C15H26O

>  <MOLECULAR_WEIGHT>  (1) 
222.372

>  <EXACT_MASS>  (1) 
222.198365457

>  <JCHEM_ACCEPTOR_COUNT>  (1) 
1

>  <JCHEM_ATOM_COUNT>  (1) 
42

>  <JCHEM_AVERAGE_POLARIZABILITY>  (1) 
28.289460303145148

>  <JCHEM_BIOAVAILABILITY>  (1) 
1

>  <JCHEM_DONOR_COUNT>  (1) 
1

>  <JCHEM_FORMAL_CHARGE>  (1) 
0

>  <JCHEM_GHOSE_FILTER>  (1) 
1

>  <JCHEM_IUPAC>  (1) 
(2S)-6-methyl-2-[(1S)-4-methylcyclohex-3-en-1-yl]hept-5-en-2-ol

>  <ALOGPS_LOGP>  (1) 
4.76

>  <JCHEM_LOGP>  (1) 
3.911965512666667

>  <ALOGPS_LOGS>  (1) 
-3.48

>  <JCHEM_MDDR_LIKE_RULE>  (1) 
0

>  <JCHEM_NUMBER_OF_RINGS>  (1) 
1

>  <JCHEM_PHYSIOLOGICAL_CHARGE>  (1) 
0

>  <JCHEM_PKA_STRONGEST_BASIC>  (1) 
-0.4708710633739094

>  <JCHEM_POLAR_SURFACE_AREA>  (1) 
20.23

>  <JCHEM_REFRACTIVITY>  (1) 
72.1875

>  <JCHEM_ROTATABLE_BOND_COUNT>  (1) 
4

>  <JCHEM_RULE_OF_FIVE>  (1) 
1

>  <ALOGPS_SOLUBILITY>  (1) 
7.29e-02 g/l

>  <JCHEM_TRADITIONAL_IUPAC>  (1) 
bisabolol

>  <JCHEM_VEBER_RULE>  (1) 
1

>  <DRUGBANK_ID>  (1) 
DB13153

>  <DRUG_GROUPS>  (1) 
approved

>  <GENERIC_NAME>  (1) 
Levomenol

>  <SYNONYMS>  (1) 
(-)-alpha-Bisabolol; alpha-(-)-bisabolol; alpha-bisabolol; Bisabolol; Kamillosan; Levomenol; α-(−)-bisabolol

>  <PRODUCTS>  (1) 
IASO White Science EX Serum; IASO White Science EX Toner; Intense Multi Ampoule Balm Vita C; Metabolic Brightening Bb Cushion; Metabolic Brightening Tone Up; Metabolic Intensive Care; NEWSTEM Rx IPL VITA C Energy Ampoule; Neogen Dermalogy White Truffle Laycure Oi L; PurpleU BAOBAB FACE; Seamoms Tamanu Oil Mist

$$$$
