
     RDKit          2D

  9  8  0  0  0  0  0  0  0  0999 V2000
   -0.6039   -1.6500    0.0000 O   0  0  0  0  0  0  0  0  0  0  0  0
    0.1105   -1.2375    0.0000 P   0  0  0  0  0  0  0  0  0  0  0  0
    0.5230   -1.9520    0.0000 O   0  0  0  0  0  0  0  0  0  0  0  0
   -0.3020   -0.5230    0.0000 O   0  0  0  0  0  0  0  0  0  0  0  0
    0.8250   -0.8250    0.0000 O   0  0  0  0  0  0  0  0  0  0  0  0
    0.8250    0.0000    0.0000 P   0  0  0  0  0  0  0  0  0  0  0  0
    0.8250    0.8250    0.0000 O   0  0  0  0  0  0  0  0  0  0  0  0
    1.6500    0.0000    0.0000 O   0  0  0  0  0  0  0  0  0  0  0  0
    0.0000    0.0000    0.0000 O   0  0  0  0  0  0  0  0  0  0  0  0
  1  2  1  0
  2  3  1  0
  2  4  2  0
  2  5  1  0
  5  6  1  0
  6  7  1  0
  6  8  1  0
  6  9  2  0
M  END
>  <DATABASE_ID>  (1) 
DB04160

>  <DATABASE_NAME>  (1) 
drugbank

>  <SMILES>  (1) 
OP(O)(=O)OP(O)(O)=O

>  <INCHI_IDENTIFIER>  (1) 
InChI=1S/H4O7P2/c1-8(2,3)7-9(4,5)6/h(H2,1,2,3)(H2,4,5,6)

>  <INCHI_KEY>  (1) 
XPPKVPWEQAFLFU-UHFFFAOYSA-N

>  <FORMULA>  (1) 
H4O7P2

>  <MOLECULAR_WEIGHT>  (1) 
177.9751

>  <EXACT_MASS>  (1) 
177.943225506

>  <JCHEM_ACCEPTOR_COUNT>  (1) 
6

>  <JCHEM_ATOM_COUNT>  (1) 
13

>  <JCHEM_AVERAGE_NEUTRAL_MICROSPECIES_CHARGE>  (1) 
-2.881555008854674

>  <JCHEM_AVERAGE_POLARIZABILITY>  (1) 
10.276038338742834

>  <JCHEM_BIOAVAILABILITY>  (1) 
1

>  <JCHEM_DONOR_COUNT>  (1) 
4

>  <JCHEM_FORMAL_CHARGE>  (1) 
0

>  <JCHEM_GHOSE_FILTER>  (1) 
0

>  <JCHEM_IUPAC>  (1) 
(phosphonooxy)phosphonic acid

>  <JCHEM_LOGP>  (1) 
-1.4419023016666666

>  <JCHEM_MDDR_LIKE_RULE>  (1) 
0

>  <JCHEM_NEUTRAL_CHARGE>  (1) 
-3

>  <JCHEM_NUMBER_OF_RINGS>  (1) 
0

>  <JCHEM_PHYSIOLOGICAL_CHARGE>  (1) 
-3

>  <JCHEM_PKA>  (1) 
3.060391741362254

>  <JCHEM_PKA_STRONGEST_ACIDIC>  (1) 
1.7026764435673858

>  <JCHEM_POLAR_SURFACE_AREA>  (1) 
124.29000000000002

>  <JCHEM_REFRACTIVITY>  (1) 
25.5248

>  <JCHEM_ROTATABLE_BOND_COUNT>  (1) 
2

>  <JCHEM_RULE_OF_FIVE>  (1) 
1

>  <JCHEM_TRADITIONAL_IUPAC>  (1) 
tetrahydrofolic acid

>  <JCHEM_VEBER_RULE>  (1) 
0

>  <DRUGBANK_ID>  (1) 
DB04160

>  <SECONDARY_ACCESSION_NUMBERS>  (1) 
EXPT01258; DB11055

>  <DRUG_GROUPS>  (1) 
approved

>  <GENERIC_NAME>  (1) 
Pyrophosphoric acid

>  <SYNONYMS>  (1) 
acide diphosphorique; Diphosphoric acid; Diphosphorsäure; Pyrophosphoric acid; Pyrophosphorsäure

>  <PRODUCTS>  (1) 
Denti Boungiorno Plaque Care Tooth; Denti Buongiorno Plaque Care Lemon Mint Tooth; Denti Buongiorno Plaque Care Tooth; Dr. DADDYS GumToothpaste; Dr. DADDYS Junior Toothpaste(Green grape); Dr. DADDYS Kids Tooth; Dr. DADDYS Kids Toothpaste(Raspberry flavor); Dr. DADDYS Tooth; Dr.DADDYS Junior Toothpaste(Mint flavor); Dr.NOAH SOLIDTOOTHPASTE; Dr.chois Toothpaste Care; Dr.chois Toothpaste Care Plus; Dr.chois Toothpaste Fresh; Exoden All In One; Innoble ONECHEWTOOTHPASTE; Mastikids II; Mastikis Gold II; Mastikis Qingjie Shine Mastic; Mastikis Qingxin Care Mastic; Mimibo Premium Tooth; Nlihome Dental Care; Onetooth Clinic Tooth; Onetoothclinic Tooth; Oral Projeqt O1 Toothpastetablets; Phosphotec; Pyrophosphate; Quantumtoothcare Tooth; Technescan PYP; Toosty Rucola Toothpaste; V34 Colour Corrector; Vontee

>  <SALTS>  (1) 
Sodium pyrophosphate; Sodium pyrophosphate decahydrate

$$$$
