
     RDKit          2D

  2  1  0  0  0  0  0  0  0  0999 V2000
    5.8452   -6.8116    0.0000 Cl  0  0  0  0  0  0  0  0  0  0  0  0
    6.6702   -6.8116    0.0000 O   0  0  0  0  0  0  0  0  0  0  0  0
  2  1  1  0
M  CHG  1   2  -1
M  END
>  <DATABASE_ID>  (1) 
DB11123

>  <DATABASE_NAME>  (1) 
drugbank

>  <SMILES>  (1) 
[O-]Cl

>  <INCHI_IDENTIFIER>  (1) 
InChI=1S/ClO/c1-2/q-1

>  <INCHI_KEY>  (1) 
WQYVRQLZKVEZGA-UHFFFAOYSA-N

>  <FORMULA>  (1) 
ClO

>  <MOLECULAR_WEIGHT>  (1) 
51.452

>  <EXACT_MASS>  (1) 
50.963767329

>  <JCHEM_ACCEPTOR_COUNT>  (1) 
1

>  <JCHEM_ATOM_COUNT>  (1) 
2

>  <JCHEM_AVERAGE_NEUTRAL_MICROSPECIES_CHARGE>  (1) 
-0.10576778692591783

>  <JCHEM_AVERAGE_POLARIZABILITY>  (1) 
3.1460209162753303

>  <JCHEM_BIOAVAILABILITY>  (1) 
1

>  <JCHEM_DONOR_COUNT>  (1) 
0

>  <JCHEM_FORMAL_CHARGE>  (1) 
-1

>  <JCHEM_GHOSE_FILTER>  (1) 
0

>  <JCHEM_IUPAC>  (1) 
hypochlorite

>  <ALOGPS_LOGP>  (1) 
0.02

>  <JCHEM_LOGP>  (1) 
0.31819389766666667

>  <ALOGPS_LOGS>  (1) 
0.74

>  <JCHEM_MDDR_LIKE_RULE>  (1) 
0

>  <JCHEM_NEUTRAL_CHARGE>  (1) 
0

>  <JCHEM_NUMBER_OF_RINGS>  (1) 
0

>  <JCHEM_PHYSIOLOGICAL_CHARGE>  (1) 
0

>  <JCHEM_PKA_STRONGEST_ACIDIC>  (1) 
7.9270968931592

>  <JCHEM_PKA_STRONGEST_BASIC>  (1) 
-5.892487818932166

>  <JCHEM_POLAR_SURFACE_AREA>  (1) 
23.06

>  <JCHEM_REFRACTIVITY>  (1) 
7.5792

>  <JCHEM_ROTATABLE_BOND_COUNT>  (1) 
0

>  <JCHEM_RULE_OF_FIVE>  (1) 
1

>  <ALOGPS_SOLUBILITY>  (1) 
3.78e+02 g/l

>  <JCHEM_TRADITIONAL_IUPAC>  (1) 
tetrahydrofolic acid

>  <JCHEM_VEBER_RULE>  (1) 
1

>  <DRUGBANK_ID>  (1) 
DB11123

>  <DRUG_GROUPS>  (1) 
approved; investigational

>  <GENERIC_NAME>  (1) 
Hypochlorite

>  <SYNONYMS>  (1) 
Hypochlorit; Hypochlorite

>  <PRODUCTS>  (1) 
(Qiqing) Sodium Hypochlorite Disinfectant; 84 Disinfectant; Airocare; Daily Doctor Sterilization Plus; Dakin's Solution 0.5% Modified; Dakins Full; Dakins Half; Dakins Quarter; Di-Dak-Sol; Diabek-100; Disinfectant; Disinfection Wash Free Hand Sanitizer; Exsept; Exsept (0.114%); HANNA DISINFECTANTspray; K-100; NaOClean E-Water; Orak-100; QIAN BAO Disinfectant; SUPERCLEAN Micro Acid Hypochlorite Disinfectant; Sodium hypochlorite disinfectant; TongYi CleanGuard 84 Disinfectant; Wash free disinfectant

>  <INTERNATIONAL_BRANDS>  (1) 
Clorox

>  <SALTS>  (1) 
Sodium hypochlorite

$$$$
