
     RDKit          2D

 46 52  0  0  0  0  0  0  0  0999 V2000
    1.9891    2.7088    0.0000 O   0  0  0  0  0  0  0  0  0  0  0  0
    1.1641    2.7088    0.0000 C   0  0  0  0  0  0  0  0  0  0  0  0
    0.3410    2.7068    0.0000 N   0  0  0  0  0  0  0  0  0  0  0  0
    0.3410    1.2795    0.0000 C   0  0  0  0  0  0  0  0  0  0  0  0
    1.1641    1.2816    0.0000 C   0  0  0  0  0  0  0  0  0  0  0  0
    1.5756    1.9941    0.0000 O   0  0  0  0  0  0  0  0  0  0  0  0
    1.1641    0.1208    0.0000 N   0  0  0  0  0  0  0  0  0  0  0  0
    0.4495   -0.2927    0.0000 C   0  0  0  0  0  0  0  0  0  0  0  0
   -0.2650    0.1208    0.0000 O   0  0  0  0  0  0  0  0  0  0  0  0
    0.4495   -1.1178    0.0000 C   0  0  0  0  0  0  0  0  0  0  0  0
   -0.2629   -1.5335    0.0000 C   0  0  0  0  0  0  0  0  0  0  0  0
   -0.2629   -2.3648    0.0000 C   0  0  0  0  0  0  0  0  0  0  0  0
   -0.9756   -2.7804    0.0000 C   0  0  0  0  0  0  0  0  0  0  0  0
   -0.9756   -3.6118    0.0000 C   0  0  0  0  0  0  0  0  0  0  0  0
   -0.2629   -4.0274    0.0000 C   0  0  0  0  0  0  0  0  0  0  0  0
    0.4495   -3.6118    0.0000 C   0  0  0  0  0  0  0  0  0  0  0  0
    0.4495   -2.7804    0.0000 C   0  0  0  0  0  0  0  0  0  0  0  0
    1.1620   -2.3648    0.0000 N   0  0  0  0  0  0  0  0  0  0  0  0
    1.1620   -1.5335    0.0000 C   0  0  0  0  0  0  0  0  0  0  0  0
    1.8764   -2.7784    0.0000 C   0  0  0  0  0  0  0  0  0  0  0  0
    0.4495   -1.9553    0.0000 H   0  0  0  0  0  0  0  0  0  0  0  0
   -0.2629   -4.8606    0.0000 C   0  0  0  0  0  0  0  0  0  0  0  0
   -1.6881   -4.8606    0.0000 N   0  0  0  0  0  0  0  0  0  0  0  0
   -1.6881   -4.0274    0.0000 C   0  0  0  0  0  0  0  0  0  0  0  0
   -2.4006   -3.6118    0.0000 C   0  0  0  0  0  0  0  0  0  0  0  0
   -2.4006   -2.7804    0.0000 C   0  0  0  0  0  0  0  0  0  0  0  0
   -1.6881   -2.3648    0.0000 C   0  0  0  0  0  0  0  0  0  0  0  0
   -0.2629   -3.1899    0.0000 H   0  0  0  0  0  0  0  0  0  0  0  0
    1.9891    1.2816    0.0000 C   0  0  0  0  0  0  0  0  0  0  0  0
    2.4007    1.9941    0.0000 C   0  0  0  0  0  0  0  0  0  0  0  0
    2.4007    0.5669    0.0000 C   0  0  0  0  0  0  0  0  0  0  0  0
   -0.2445    0.6962    0.0000 O   0  0  0  0  0  0  0  0  0  0  0  0
   -0.0725    3.4234    0.0000 C   0  0  0  0  0  0  0  0  0  0  0  0
   -0.8997    3.4234    0.0000 C   0  0  0  0  0  0  0  0  0  0  0  0
   -1.3112    4.1379    0.0000 C   0  0  0  0  0  0  0  0  0  0  0  0
   -2.0258    3.7244    0.0000 C   0  0  0  0  0  0  0  0  0  0  0  0
   -1.3112    2.7088    0.0000 C   0  0  0  0  0  0  0  0  0  0  0  0
    0.3410    4.1398    0.0000 C   0  0  0  0  0  0  0  0  0  0  0  0
    1.1641    4.1398    0.0000 N   0  0  0  0  0  0  0  0  0  0  0  0
    1.5756    3.4214    0.0000 C   0  0  0  0  0  0  0  0  0  0  0  0
    2.4007    3.4214    0.0000 C   0  0  0  0  0  0  0  0  0  0  0  0
    2.4007    4.8544    0.0000 C   0  0  0  0  0  0  0  0  0  0  0  0
    1.5756    4.8544    0.0000 C   0  0  0  0  0  0  0  0  0  0  0  0
    0.7505    3.4214    0.0000 H   0  0  0  0  0  0  0  0  0  0  0  0
   -0.0603    4.8606    0.0000 O   0  0  0  0  0  0  0  0  0  0  0  0
   -0.7155    2.9031    0.0000 H   0  0  0  0  0  0  0  0  0  0  0  0
  2  1  1  1
  2  3  1  0
  2  6  1  0
 40  2  1  0
  3  4  1  0
 33  3  1  0
  5  4  1  0
  4 32  2  0
  5  7  1  1
  5 29  1  0
  5  6  1  0
  7  8  1  0
  8  9  2  0
 10  8  1  1
 10 11  1  0
 10 19  1  0
 12 11  1  0
 12 13  1  0
 17 12  1  0
 12 28  1  6
 13 14  2  0
 13 27  1  0
 14 15  1  0
 14 24  1  0
 15 22  2  0
 16 15  1  0
 17 16  1  0
 17 21  1  1
 17 18  1  0
 18 20  1  0
 19 18  1  0
 22 23  1  0
 24 23  1  0
 24 25  2  0
 26 25  1  0
 27 26  2  0
 29 30  1  0
 29 31  1  0
 34 33  1  0
 33 38  1  0
 33 46  1  6
 34 35  1  0
 34 37  1  6
 35 36  1  0
 38 45  2  0
 39 38  1  0
 39 43  1  0
 40 39  1  0
 40 41  1  0
 40 44  1  6
 41 42  1  0
 43 42  1  0
M  END
>  <DATABASE_ID>  (1) 
DB11275

>  <DATABASE_NAME>  (1) 
drugbank

>  <SMILES>  (1) 
[H][C@@]12CCCN1C(=O)[C@]([H])([C@H](C)CC)N1C(=O)[C@](NC(=O)[C@H]3CN(C)[C@]4([H])CC5=CNC6=CC=CC(=C56)[C@@]4([H])C3)(O[C@@]21O)C(C)C

>  <INCHI_IDENTIFIER>  (1) 
InChI=1S/C32H43N5O5/c1-6-18(4)27-29(39)36-12-8-11-25(36)32(41)37(27)30(40)31(42-32,17(2)3)34-28(38)20-13-22-21-9-7-10-23-26(21)19(15-33-23)14-24(22)35(5)16-20/h7,9-10,15,17-18,20,22,24-25,27,33,41H,6,8,11-14,16H2,1-5H3,(H,34,38)/t18-,20-,22-,24-,25+,27+,31-,32+/m1/s1

>  <INCHI_KEY>  (1) 
SBFXHXZNBNFPHV-PXXBSISHSA-N

>  <FORMULA>  (1) 
C32H43N5O5

>  <MOLECULAR_WEIGHT>  (1) 
577.726

>  <EXACT_MASS>  (1) 
577.326419505

>  <JCHEM_ACCEPTOR_COUNT>  (1) 
6

>  <JCHEM_ATOM_COUNT>  (1) 
85

>  <JCHEM_AVERAGE_POLARIZABILITY>  (1) 
63.583678695467434

>  <JCHEM_BIOAVAILABILITY>  (1) 
1

>  <JCHEM_DONOR_COUNT>  (1) 
3

>  <JCHEM_FORMAL_CHARGE>  (1) 
0

>  <JCHEM_GHOSE_FILTER>  (1) 
0

>  <JCHEM_IUPAC>  (1) 
(2R,4R,7R)-N-[(1S,2S,4R,7S)-7-[(2R)-butan-2-yl]-2-hydroxy-5,8-dioxo-4-(propan-2-yl)-3-oxa-6,9-diazatricyclo[7.3.0.0^{2,6}]dodecan-4-yl]-6-methyl-6,11-diazatetracyclo[7.6.1.0^{2,7}.0^{12,16}]hexadeca-1(16),9,12,14-tetraene-4-carboxamide

>  <ALOGPS_LOGP>  (1) 
3.39

>  <JCHEM_LOGP>  (1) 
3.5036509930453303

>  <ALOGPS_LOGS>  (1) 
-3.32

>  <JCHEM_MDDR_LIKE_RULE>  (1) 
0

>  <JCHEM_NUMBER_OF_RINGS>  (1) 
7

>  <JCHEM_PHYSIOLOGICAL_CHARGE>  (1) 
1

>  <JCHEM_PKA>  (1) 
11.751329270555852

>  <JCHEM_PKA_STRONGEST_ACIDIC>  (1) 
9.713234167242808

>  <JCHEM_PKA_STRONGEST_BASIC>  (1) 
8.39483138061606

>  <JCHEM_POLAR_SURFACE_AREA>  (1) 
118.21000000000001

>  <JCHEM_REFRACTIVITY>  (1) 
157.25760000000005

>  <JCHEM_ROTATABLE_BOND_COUNT>  (1) 
5

>  <JCHEM_RULE_OF_FIVE>  (1) 
0

>  <ALOGPS_SOLUBILITY>  (1) 
2.76e-01 g/l

>  <JCHEM_TRADITIONAL_IUPAC>  (1) 
(2R,4R,7R)-N-[(1S,2S,4R,7S)-7-[(2R)-butan-2-yl]-2-hydroxy-4-isopropyl-5,8-dioxo-3-oxa-6,9-diazatricyclo[7.3.0.0^{2,6}]dodecan-4-yl]-6-methyl-6,11-diazatetracyclo[7.6.1.0^{2,7}.0^{12,16}]hexadeca-1(16),9,12,14-tetraene-4-carboxamide

>  <JCHEM_VEBER_RULE>  (1) 
0

>  <DRUGBANK_ID>  (1) 
DB11275

>  <DRUG_GROUPS>  (1) 
approved

>  <GENERIC_NAME>  (1) 
Epicriptine

>  <SYNONYMS>  (1) 
dihydro-beta-ergocryptine; Epicriptina; Epicriptine; Epicriptinum; Epicryptine

>  <PRODUCTS>  (1) 
Ergoloid Mesylates

>  <SALTS>  (1) 
Epicriptine mesilate

$$$$
