975
     RDKit          2D

 36 39  0  0  0  0  0  0  0  0999 V2000
   10.7229    0.4549    0.0000 O   0  0  0  0  0  0  0  0  0  0  0  0
    9.2844    2.9244    0.0000 O   0  0  0  0  0  0  0  0  0  0  0  0
    3.5220   -2.8734    0.0000 O   0  0  0  0  0  0  0  0  0  0  0  0
    2.0930   -0.3983    0.0000 O   0  0  0  0  0  0  0  0  0  0  0  0
    7.1079   -1.6644    0.0000 N   0  0  0  0  0  0  0  0  0  0  0  0
    5.6655    1.6642    0.0000 N   0  0  0  0  0  0  0  0  0  0  0  0
    7.8650   -0.4155    0.0000 N   0  0  0  0  0  0  0  0  0  0  0  0
    4.9509    0.4267    0.0000 N   0  0  0  0  0  0  0  0  0  0  0  0
    7.1174    0.8678    0.0000 N   0  0  0  0  0  0  0  0  0  0  0  0
    5.6655   -0.8108    0.0000 N   0  0  0  0  0  0  0  0  0  0  0  0
    8.5779    0.8592    0.0000 N   0  0  0  0  0  0  0  0  0  0  0  0
    4.2365   -0.8108    0.0000 N   0  0  0  0  0  0  0  0  0  0  0  0
    6.3887   -2.0686    0.0000 C   0  0  0  0  0  0  0  0  0  0  0  0
    7.8176   -2.0851    0.0000 C   0  0  0  0  0  0  0  0  0  0  0  0
    6.3799    2.0767    0.0000 C   0  0  0  0  0  0  0  0  0  0  0  0
    4.9509    2.0767    0.0000 C   0  0  0  0  0  0  0  0  0  0  0  0
    6.3792   -2.8935    0.0000 C   0  0  0  0  0  0  0  0  0  0  0  0
    7.8081   -2.9101    0.0000 C   0  0  0  0  0  0  0  0  0  0  0  0
    6.3799    2.9018    0.0000 C   0  0  0  0  0  0  0  0  0  0  0  0
    4.9509    2.9018    0.0000 C   0  0  0  0  0  0  0  0  0  0  0  0
    7.0888   -3.3143    0.0000 C   0  0  0  0  0  0  0  0  0  0  0  0
    5.6655    3.3143    0.0000 C   0  0  0  0  0  0  0  0  0  0  0  0
    7.1174   -0.8394    0.0000 C   0  0  0  0  0  0  0  0  0  0  0  0
    5.6655    0.8392    0.0000 C   0  0  0  0  0  0  0  0  0  0  0  0
    6.3799    0.4267    0.0000 C   0  0  0  0  0  0  0  0  0  0  0  0
    6.3799   -0.3983    0.0000 C   0  0  0  0  0  0  0  0  0  0  0  0
    7.8650    0.4439    0.0000 C   0  0  0  0  0  0  0  0  0  0  0  0
    4.9509   -0.3983    0.0000 C   0  0  0  0  0  0  0  0  0  0  0  0
    9.2939    0.4494    0.0000 C   0  0  0  0  0  0  0  0  0  0  0  0
    8.5747    1.6842    0.0000 C   0  0  0  0  0  0  0  0  0  0  0  0
    4.2365   -1.6358    0.0000 C   0  0  0  0  0  0  0  0  0  0  0  0
    3.5220   -0.3983    0.0000 C   0  0  0  0  0  0  0  0  0  0  0  0
   10.0068    0.8647    0.0000 C   0  0  0  0  0  0  0  0  0  0  0  0
    9.2876    2.0994    0.0000 C   0  0  0  0  0  0  0  0  0  0  0  0
    3.5220   -2.0484    0.0000 C   0  0  0  0  0  0  0  0  0  0  0  0
    2.8075   -0.8108    0.0000 C   0  0  0  0  0  0  0  0  0  0  0  0
  1 33  1  0
  2 34  1  0
  3 35  1  0
  4 36  1  0
  5 13  1  0
  5 14  1  0
  5 23  1  0
  6 15  1  0
  6 16  1  0
  6 24  1  0
  7 23  2  0
  7 27  1  0
  8 24  1  0
  8 28  2  0
  9 25  1  0
  9 27  2  0
 10 26  2  0
 10 28  1  0
 11 27  1  0
 11 29  1  0
 11 30  1  0
 12 28  1  0
 12 31  1  0
 12 32  1  0
 13 17  1  0
 14 18  1  0
 15 19  1  0
 16 20  1  0
 17 21  1  0
 18 21  1  0
 19 22  1  0
 20 22  1  0
 23 26  1  0
 24 25  2  0
 25 26  1  0
 29 33  1  0
 30 34  1  0
 31 35  1  0
 32 36  1  0
M  END
>  <DATABASE_ID>  (1) 
DB00975

>  <DATABASE_NAME>  (1) 
drugbank

>  <SMILES>  (1) 
OCCN(CCO)C1=NC2=C(N=C(N=C2N2CCCCC2)N(CCO)CCO)C(=N1)N1CCCCC1

>  <INCHI_IDENTIFIER>  (1) 
InChI=1S/C24H40N8O4/c33-15-11-31(12-16-34)23-26-20-19(21(27-23)29-7-3-1-4-8-29)25-24(32(13-17-35)14-18-36)28-22(20)30-9-5-2-6-10-30/h33-36H,1-18H2

>  <INCHI_KEY>  (1) 
IZEKFCXSFNUWAM-UHFFFAOYSA-N

>  <FORMULA>  (1) 
C24H40N8O4

>  <MOLECULAR_WEIGHT>  (1) 
504.6256

>  <EXACT_MASS>  (1) 
504.317251808

>  <JCHEM_ACCEPTOR_COUNT>  (1) 
12

>  <JCHEM_ATOM_COUNT>  (1) 
76

>  <JCHEM_AVERAGE_NEUTRAL_MICROSPECIES_CHARGE>  (1) 
0.009137813345862571

>  <JCHEM_AVERAGE_POLARIZABILITY>  (1) 
56.92635212313209

>  <JCHEM_BIOAVAILABILITY>  (1) 
0

>  <JCHEM_DONOR_COUNT>  (1) 
4

>  <JCHEM_FORMAL_CHARGE>  (1) 
0

>  <JCHEM_GHOSE_FILTER>  (1) 
0

>  <JCHEM_IUPAC>  (1) 
2-({6-[bis(2-hydroxyethyl)amino]-4,8-bis(piperidin-1-yl)-[1,3]diazino[5,4-d]pyrimidin-2-yl}(2-hydroxyethyl)amino)ethan-1-ol

>  <ALOGPS_LOGP>  (1) 
1.52

>  <JCHEM_LOGP>  (1) 
1.8063892579999996

>  <ALOGPS_LOGS>  (1) 
-2.74

>  <JCHEM_MDDR_LIKE_RULE>  (1) 
1

>  <JCHEM_NEUTRAL_CHARGE>  (1) 
0

>  <JCHEM_NUMBER_OF_RINGS>  (1) 
4

>  <JCHEM_PHYSIOLOGICAL_CHARGE>  (1) 
0

>  <JCHEM_PKA>  (1) 
15.397674874733832

>  <JCHEM_PKA_STRONGEST_ACIDIC>  (1) 
14.971635373079284

>  <JCHEM_PKA_STRONGEST_BASIC>  (1) 
3.5410932251516574

>  <JCHEM_POLAR_SURFACE_AREA>  (1) 
145.44

>  <JCHEM_REFRACTIVITY>  (1) 
142.77939999999998

>  <JCHEM_ROTATABLE_BOND_COUNT>  (1) 
12

>  <JCHEM_RULE_OF_FIVE>  (1) 
0

>  <ALOGPS_SOLUBILITY>  (1) 
9.22e-01 g/l

>  <JCHEM_TRADITIONAL_IUPAC>  (1) 
biotin

>  <JCHEM_VEBER_RULE>  (1) 
0

>  <DRUGBANK_ID>  (1) 
DB00975

>  <SECONDARY_ACCESSION_NUMBERS>  (1) 
APRD00360

>  <DRUG_GROUPS>  (1) 
approved; investigational

>  <GENERIC_NAME>  (1) 
Dipyridamole

>  <SYNONYMS>  (1) 
Dipiridamol; Dipyridamine; Dipyridamole; Dipyridamolum; Dipyudamine; Dypyridamol

>  <PRODUCTS>  (1) 
Aggrenox; Apo-dipyridamole; Apo-dipyridamole-SC Tab 25mg; Apo-dipyridamole-SC Tab 50mg; Apo-dipyridamole-SC Tab 75mg; Asasantine Cap; Aspirin and Dipyridamole; Aspirin and Dipyridamole Extended Release; Aspirin and Extended - Release Dipyridamole Capsules, 25 mg / 200 mg; Aspirin and Extended-Release Dipyridamole; Aspirin and Extended-release Dipyridamole; Aspirin-dipyridamole; Asprin and Extended-release Dipyridamole; Dipyridamole; Dipyridamole 25 Tab 25mg; Dipyridamole 50 Tab 50mg; Dipyridamole 75 Tab; Dipyridamole Injection, USP; Dipyridamole for Injection; Dipyridamole-25; Dipyridamole-50; Dipyridamole-75; Novo-dipiradol Sct 100mg; Novo-dipiradol Tab 25mg; Novo-dipiradol Tab 50mg; Novo-dipiradol Tab 75mg; Persantine; Persantine Tab 100mg; Persantine Tab 25mg; Persantine Tab 50mg; Persantine Tab 75mg; Taro-dipyridamole/ Asa

>  <INTERNATIONAL_BRANDS>  (1) 
Agilease; Cardoxin; Cleridium 150; Curantyl; Persantin

$$$$
