
     RDKit          2D

  4  3  0  0  0  0  0  0  0  0999 V2000
    0.0000   -0.2062    0.0000 C   0  0  0  0  0  0  0  0  0  0  0  0
   -0.7145   -0.6187    0.0000 H   0  0  0  0  0  0  0  0  0  0  0  0
    0.0000    0.6187    0.0000 O   0  0  0  0  0  0  0  0  0  0  0  0
    0.7145   -0.6187    0.0000 H   0  0  0  0  0  0  0  0  0  0  0  0
  3  1  2  0
  1  4  1  0
  1  2  1  0
M  END
>  <DATABASE_ID>  (1) 
DB03843

>  <DATABASE_NAME>  (1) 
drugbank

>  <SMILES>  (1) 
[H]C([H])=O

>  <INCHI_IDENTIFIER>  (1) 
InChI=1S/CH2O/c1-2/h1H2

>  <INCHI_KEY>  (1) 
WSFSSNUMVMOOMR-UHFFFAOYSA-N

>  <FORMULA>  (1) 
CH2O

>  <MOLECULAR_WEIGHT>  (1) 
30.026

>  <EXACT_MASS>  (1) 
30.010564686

>  <JCHEM_ACCEPTOR_COUNT>  (1) 
1

>  <JCHEM_ATOM_COUNT>  (1) 
4

>  <JCHEM_AVERAGE_POLARIZABILITY>  (1) 
2.578047880261086

>  <JCHEM_BIOAVAILABILITY>  (1) 
1

>  <JCHEM_DONOR_COUNT>  (1) 
0

>  <JCHEM_FORMAL_CHARGE>  (1) 
0

>  <JCHEM_GHOSE_FILTER>  (1) 
0

>  <JCHEM_IUPAC>  (1) 
formaldehyde

>  <ALOGPS_LOGP>  (1) 
-0.68

>  <JCHEM_LOGP>  (1) 
-0.46697540866666665

>  <ALOGPS_LOGS>  (1) 
0.82

>  <JCHEM_MDDR_LIKE_RULE>  (1) 
0

>  <JCHEM_NUMBER_OF_RINGS>  (1) 
0

>  <JCHEM_PHYSIOLOGICAL_CHARGE>  (1) 
0

>  <JCHEM_PKA_STRONGEST_BASIC>  (1) 
-8.091396818575825

>  <JCHEM_POLAR_SURFACE_AREA>  (1) 
17.07

>  <JCHEM_REFRACTIVITY>  (1) 
6.3069999999999995

>  <JCHEM_ROTATABLE_BOND_COUNT>  (1) 
0

>  <JCHEM_RULE_OF_FIVE>  (1) 
1

>  <ALOGPS_SOLUBILITY>  (1) 
1.98e+02 g/l

>  <JCHEM_TRADITIONAL_IUPAC>  (1) 
formaldehyde

>  <JCHEM_VEBER_RULE>  (1) 
1

>  <DRUGBANK_ID>  (1) 
DB03843

>  <SECONDARY_ACCESSION_NUMBERS>  (1) 
EXPT01444

>  <DRUG_GROUPS>  (1) 
approved; investigational; vet_approved

>  <GENERIC_NAME>  (1) 
Formaldehyde

>  <SYNONYMS>  (1) 
Formaldehído; Formaldehyd; Formaldehyde; Formaldehyde solution; Formalin; Formic aldehyde; Formol; Methanal; Methyl aldehyde; Methylene oxide; Oxomethane; Oxomethylene; Oxymethylene; Paraform

>  <PRODUCTS>  (1) 
British Army Foot Pwr; Forma-Ray; Formadon; Formalaz; Formaldehyde; Root Canal Therapy; T.R.U.E. Test Thin-Layer Rapid Use Patch Test

$$$$
