
     RDKit          2D

 15 15  0  0  0  0  0  0  0  0999 V2000
   -1.0716    0.4125    0.0000 N   0  0  0  0  0  0  0  0  0  0  0  0
   -1.0716   -1.2374    0.0000 N   0  0  0  0  0  0  0  0  0  0  0  0
   -1.7862   -0.8250    0.0000 C   0  0  0  0  0  0  0  0  0  0  0  0
   -2.5006   -1.2374    0.0000 N   0  0  0  0  0  0  0  0  0  0  0  0
   -0.3572   -0.8250    0.0000 C   0  0  0  0  0  0  0  0  0  0  0  0
    0.3571   -1.2374    0.0000 N   0  0  0  0  0  0  0  0  0  0  0  0
   -1.7862    0.0000    0.0000 C   0  0  0  0  0  0  0  0  0  0  0  0
   -2.5006    0.4125    0.0000 Cl  0  0  0  0  0  0  0  0  0  0  0  0
   -0.3572    0.0000    0.0000 C   0  0  0  0  0  0  0  0  0  0  0  0
    1.0716    0.0000    0.0000 N   0  0  0  0  0  0  0  0  0  0  0  0
    2.5006    0.0000    0.0000 N   0  0  0  0  0  0  0  0  0  0  0  0
    1.7862    0.4125    0.0000 C   0  0  0  0  0  0  0  0  0  0  0  0
    1.7862    1.2374    0.0000 N   0  0  0  0  0  0  0  0  0  0  0  0
    0.3571    0.4125    0.0000 C   0  0  0  0  0  0  0  0  0  0  0  0
    0.3571    1.2374    0.0000 O   0  0  0  0  0  0  0  0  0  0  0  0
  1  7  2  0
  1  9  1  0
  7  3  1  0
  3  2  2  0
  2  5  1  0
  5  9  2  0
  3  4  1  0
  5  6  1  0
  7  8  1  0
  9 14  1  0
 14 10  1  0
 10 12  1  0
 12 11  1  0
 12 13  2  0
 14 15  2  0
M  END
>  <DATABASE_ID>  (1) 
DB00594

>  <DATABASE_NAME>  (1) 
drugbank

>  <SMILES>  (1) 
NC(=N)NC(=O)C1=NC(Cl)=C(N)N=C1N

>  <INCHI_IDENTIFIER>  (1) 
InChI=1S/C6H8ClN7O/c7-2-4(9)13-3(8)1(12-2)5(15)14-6(10)11/h(H4,8,9,13)(H4,10,11,14,15)

>  <INCHI_KEY>  (1) 
XSDQTOBWRPYKKA-UHFFFAOYSA-N

>  <FORMULA>  (1) 
C6H8ClN7O

>  <MOLECULAR_WEIGHT>  (1) 
229.627

>  <EXACT_MASS>  (1) 
229.04788562

>  <JCHEM_ACCEPTOR_COUNT>  (1) 
7

>  <JCHEM_ATOM_COUNT>  (1) 
23

>  <JCHEM_AVERAGE_POLARIZABILITY>  (1) 
20.004164002612725

>  <JCHEM_BIOAVAILABILITY>  (1) 
1

>  <JCHEM_DONOR_COUNT>  (1) 
5

>  <JCHEM_FORMAL_CHARGE>  (1) 
0

>  <JCHEM_GHOSE_FILTER>  (1) 
0

>  <JCHEM_IUPAC>  (1) 
3,5-diamino-N-carbamimidoyl-6-chloropyrazine-2-carboxamide

>  <ALOGPS_LOGP>  (1) 
-0.48

>  <JCHEM_LOGP>  (1) 
-0.4954324606666666

>  <ALOGPS_LOGS>  (1) 
-2.57

>  <JCHEM_MDDR_LIKE_RULE>  (1) 
0

>  <JCHEM_NUMBER_OF_RINGS>  (1) 
1

>  <JCHEM_PHYSIOLOGICAL_CHARGE>  (1) 
1

>  <JCHEM_PKA>  (1) 
17.81367730138951

>  <JCHEM_PKA_STRONGEST_ACIDIC>  (1) 
11.426254308302052

>  <JCHEM_PKA_STRONGEST_BASIC>  (1) 
7.345919090361843

>  <JCHEM_POLAR_SURFACE_AREA>  (1) 
156.79

>  <JCHEM_REFRACTIVITY>  (1) 
67.18119999999999

>  <JCHEM_ROTATABLE_BOND_COUNT>  (1) 
1

>  <JCHEM_RULE_OF_FIVE>  (1) 
1

>  <ALOGPS_SOLUBILITY>  (1) 
6.16e-01 g/l

>  <JCHEM_TRADITIONAL_IUPAC>  (1) 
pentostatin

>  <JCHEM_VEBER_RULE>  (1) 
0

>  <DRUGBANK_ID>  (1) 
DB00594

>  <SECONDARY_ACCESSION_NUMBERS>  (1) 
APRD00790; EXPT00514

>  <DRUG_GROUPS>  (1) 
approved; investigational

>  <GENERIC_NAME>  (1) 
Amiloride

>  <SYNONYMS>  (1) 
3,5-diamino-N-carbamimidoyl-6-chloropyrazine-2-carboxamide; Amilorid; Amilorida; Amiloride; Amiloridum; Amipramidin; Amipramidine; Amyloride; N-amidino-3,5-diamino-6-chloropyrazinecarboxamide

>  <PRODUCTS>  (1) 
Aa-amilzide; Alti-amiloride Hctz; Ami-hydro Tab; Amiloride Hydrochloride; Amiloride Hydrochloride Tablets, USP; Amiloride Hydrochloride and Hydrochlorothiazide; Amiloride Hydrocloride; Midamor; Midamor Tablets 5mg; Moduret; Mylan-amilazide; Novamilor; Nu-amilzide 5/50 Mg Tab; Penta-amiloride Hctz Tablets; Riva-amilzide 5/50 mg

>  <INTERNATIONAL_BRANDS>  (1) 
Arumil; Kaluril; Modamide; Moduretic

>  <SALTS>  (1) 
Amiloride hydrochloride; Amiloride hydrochloride dihydrate

$$$$
