
     RDKit          2D

 29 24  0  0  1  0  0  0  0  0999 V2000
   -2.1434    0.2357    0.0000 C   0  0  0  0  0  0  0  0  0  0  0  0
   -1.4289   -0.1768    0.0000 C   0  0  0  0  0  0  0  0  0  0  0  0
   -0.7145    0.2357    0.0000 C   0  0  0  0  0  0  0  0  0  0  0  0
    0.0000   -0.1768    0.0000 C   0  0  0  0  0  0  0  0  0  0  0  0
    0.7145    0.2357    0.0000 C   0  0  0  0  0  0  0  0  0  0  0  0
    1.4289   -0.1768    0.0000 C   0  0  0  0  0  0  0  0  0  0  0  0
    1.4289   -1.0018    0.0000 O   0  0  0  0  0  0  0  0  0  0  0  0
    2.1434    0.2357    0.0000 O   0  0  0  0  0  0  0  0  0  0  0  0
    0.7145    1.0607    0.0000 O   0  0  0  0  0  0  0  0  0  0  0  0
    0.0000   -1.0018    0.0000 O   0  0  0  0  0  0  0  0  0  0  0  0
   -0.7145    1.0607    0.0000 O   0  0  0  0  0  0  0  0  0  0  0  0
   -1.4289   -1.0018    0.0000 O   0  0  0  0  0  0  0  0  0  0  0  0
   -2.8579   -0.1768    0.0000 O   0  0  0  0  0  0  0  0  0  0  0  0
    5.4581    0.2856    0.0000 C   0  0  0  0  0  0  0  0  0  0  0  0
    6.1725   -0.1269    0.0000 C   0  0  0  0  0  0  0  0  0  0  0  0
    6.8870    0.2856    0.0000 C   0  0  0  0  0  0  0  0  0  0  0  0
    7.6015   -0.1269    0.0000 C   0  0  0  0  0  0  0  0  0  0  0  0
    8.3160    0.2856    0.0000 C   0  0  0  0  0  0  0  0  0  0  0  0
    9.0304   -0.1269    0.0000 C   0  0  0  0  0  0  0  0  0  0  0  0
    9.7449    0.2856    0.0000 O   0  0  0  0  0  0  0  0  0  0  0  0
    9.0304   -0.9519    0.0000 O   0  0  0  0  0  0  0  0  0  0  0  0
    8.3160    1.1106    0.0000 O   0  0  0  0  0  0  0  0  0  0  0  0
    7.6015   -0.9519    0.0000 O   0  0  0  0  0  0  0  0  0  0  0  0
    6.8870    1.1106    0.0000 O   0  0  0  0  0  0  0  0  0  0  0  0
    6.1725   -0.9519    0.0000 O   0  0  0  0  0  0  0  0  0  0  0  0
    4.7436   -0.1269    0.0000 O   0  0  0  0  0  0  0  0  0  0  0  0
    0.0000   -2.6518    0.0000 O   0  0  0  0  0  0  0  0  0  0  0  0
    2.3571   -2.6518    0.0000 O   0  0  0  0  0  0  0  0  0  0  0  0
    2.8579    0.6482    0.0000 Mg  0  0  0  0  0 15  0  0  0  0  0  0
  1  2  1  0
  2  3  1  0
  3  4  1  0
  4  5  1  0
  5  6  1  0
  6  7  2  0
  6  8  1  0
  5  9  1  1
  4 10  1  1
  3 11  1  1
  2 12  1  6
  1 13  1  0
 14 15  1  0
 15 16  1  0
 16 17  1  0
 17 18  1  0
 18 19  1  0
 19 20  2  0
 19 21  1  0
 18 22  1  1
 17 23  1  1
 16 24  1  1
 15 25  1  6
 14 26  1  0
M  CHG  3   8  -1  21  -1  29   2
M  END
>  <DATABASE_ID>  (1) 
DB13749

>  <DATABASE_NAME>  (1) 
drugbank

>  <SMILES>  (1) 
O.O.[Mg++].OC[C@@H](O)[C@@H](O)[C@H](O)[C@@H](O)C([O-])=O.OC[C@@H](O)[C@@H](O)[C@H](O)[C@@H](O)C([O-])=O

>  <INCHI_IDENTIFIER>  (1) 
InChI=1S/2C6H12O7.Mg.2H2O/c2*7-1-2(8)3(9)4(10)5(11)6(12)13;;;/h2*2-5,7-11H,1H2,(H,12,13);;2*1H2/q;;+2;;/p-2/t2*2-,3-,4+,5-;;;/m11.../s1

>  <INCHI_KEY>  (1) 
HJWFTNWQKDPLAS-SYAJEJNSSA-L

>  <FORMULA>  (1) 
C12H26MgO16

>  <MOLECULAR_WEIGHT>  (1) 
450.629

>  <EXACT_MASS>  (1) 
450.10712646

>  <JCHEM_ACCEPTOR_COUNT>  (1) 
7

>  <JCHEM_ATOM_COUNT>  (1) 
55

>  <JCHEM_AVERAGE_POLARIZABILITY>  (1) 
16.62222025293751

>  <JCHEM_BIOAVAILABILITY>  (1) 
1

>  <JCHEM_DONOR_COUNT>  (1) 
5

>  <JCHEM_FORMAL_CHARGE>  (1) 
0

>  <JCHEM_GHOSE_FILTER>  (1) 
0

>  <JCHEM_IUPAC>  (1) 
magnesium(2+) ion bis((2R,3S,4R,5R)-2,3,4,5,6-pentahydroxyhexanoate) dihydrate

>  <ALOGPS_LOGP>  (1) 
-1.98

>  <JCHEM_LOGP>  (1) 
-3.4097443106666665

>  <ALOGPS_LOGS>  (1) 
-0.98

>  <JCHEM_MDDR_LIKE_RULE>  (1) 
0

>  <JCHEM_NUMBER_OF_RINGS>  (1) 
0

>  <JCHEM_PHYSIOLOGICAL_CHARGE>  (1) 
-1

>  <JCHEM_PKA>  (1) 
12.593710458724516

>  <JCHEM_PKA_STRONGEST_ACIDIC>  (1) 
3.3882055743218547

>  <JCHEM_PKA_STRONGEST_BASIC>  (1) 
-2.974220927705365

>  <JCHEM_POLAR_SURFACE_AREA>  (1) 
141.28

>  <JCHEM_REFRACTIVITY>  (1) 
49.10809999999999

>  <JCHEM_ROTATABLE_BOND_COUNT>  (1) 
10

>  <JCHEM_RULE_OF_FIVE>  (1) 
1

>  <ALOGPS_SOLUBILITY>  (1) 
4.32e+01 g/l

>  <JCHEM_TRADITIONAL_IUPAC>  (1) 
magnesium(2+) ion bis(D-gluconate) dihydrate

>  <JCHEM_VEBER_RULE>  (1) 
0

>  <DRUGBANK_ID>  (1) 
DB13749

>  <DRUG_GROUPS>  (1) 
approved; withdrawn

>  <GENERIC_NAME>  (1) 
Magnesium gluconate

>  <SYNONYMS>  (1) 
Magnesium (as gluconate); Magnesium D-gluconate (1:2) dihydrate; Magnesium D-gluconate (1:2) hydrate; Magnesium gluconate; Magnesium gluconate,dihydrate; Magnesium gluconicum

>  <PRODUCTS>  (1) 
Formula 9 Tab; K-med; Magnesium Liq 114mg/15ml; Multi Pro; Multi Vitamin-mineral Formula; Provida DHA; Reebok; Swiss One Timed Release Tab

$$$$
