665
     RDKit          2D

 22 23  0  0  0  0  0  0  0  0999 V2000
    2.9685    1.7245    0.0000 F   0  0  0  0  0  0  0  0  0  0  0  0
    4.6185    1.7245    0.0000 F   0  0  0  0  0  0  0  0  0  0  0  0
    3.7935    2.5496    0.0000 F   0  0  0  0  0  0  0  0  0  0  0  0
    4.6956   -2.1231    0.0000 O   0  0  0  0  0  0  0  0  0  0  0  0
    6.1477    0.3920    0.0000 O   0  0  0  0  0  0  0  0  0  0  0  0
    1.6500    0.4870    0.0000 O   0  0  0  0  0  0  0  0  0  0  0  0
    2.3645    1.7245    0.0000 O   0  0  0  0  0  0  0  0  0  0  0  0
    5.2224   -0.7505    0.0000 N   0  0  0  0  0  0  0  0  0  0  0  0
    6.5282   -1.0281    0.0000 N   0  0  0  0  0  0  0  0  0  0  0  0
    2.3645    0.8995    0.0000 N   0  0  0  0  0  0  0  0  0  0  0  0
    6.1157   -1.7425    0.0000 C   0  0  0  0  0  0  0  0  0  0  0  0
    5.3087   -1.5710    0.0000 C   0  0  0  0  0  0  0  0  0  0  0  0
    6.8302   -2.1550    0.0000 C   0  0  0  0  0  0  0  0  0  0  0  0
    5.9442   -2.5496    0.0000 C   0  0  0  0  0  0  0  0  0  0  0  0
    5.9762   -0.4150    0.0000 C   0  0  0  0  0  0  0  0  0  0  0  0
    4.5080   -0.3380    0.0000 C   0  0  0  0  0  0  0  0  0  0  0  0
    4.5080    0.4870    0.0000 C   0  0  0  0  0  0  0  0  0  0  0  0
    3.7935   -0.7505    0.0000 C   0  0  0  0  0  0  0  0  0  0  0  0
    3.7935    0.8995    0.0000 C   0  0  0  0  0  0  0  0  0  0  0  0
    3.0791    0.4870    0.0000 C   0  0  0  0  0  0  0  0  0  0  0  0
    3.0791   -0.3380    0.0000 C   0  0  0  0  0  0  0  0  0  0  0  0
    3.7935    1.7245    0.0000 C   0  0  0  0  0  0  0  0  0  0  0  0
  1 22  1  0
  2 22  1  0
  3 22  1  0
  4 12  2  0
  5 15  2  0
  6 10  1  0
  7 10  2  0
  8 12  1  0
  8 15  1  0
  8 16  1  0
  9 11  1  0
  9 15  1  0
 10 20  1  0
 11 12  1  0
 11 13  1  0
 11 14  1  0
 16 17  2  0
 16 18  1  0
 17 19  1  0
 18 21  2  0
 19 20  2  0
 19 22  1  0
 20 21  1  0
M  CHG  2   6  -1  10   1
M  END
>  <DATABASE_ID>  (1) 
DB00665

>  <DATABASE_NAME>  (1) 
drugbank

>  <SMILES>  (1) 
CC1(C)NC(=O)N(C1=O)C1=CC(=C(C=C1)[N+]([O-])=O)C(F)(F)F

>  <INCHI_IDENTIFIER>  (1) 
InChI=1S/C12H10F3N3O4/c1-11(2)9(19)17(10(20)16-11)6-3-4-8(18(21)22)7(5-6)12(13,14)15/h3-5H,1-2H3,(H,16,20)

>  <INCHI_KEY>  (1) 
XWXYUMMDTVBTOU-UHFFFAOYSA-N

>  <FORMULA>  (1) 
C12H10F3N3O4

>  <MOLECULAR_WEIGHT>  (1) 
317.2207

>  <EXACT_MASS>  (1) 
317.062340438

>  <JCHEM_ACCEPTOR_COUNT>  (1) 
4

>  <JCHEM_ATOM_COUNT>  (1) 
32

>  <JCHEM_AVERAGE_NEUTRAL_MICROSPECIES_CHARGE>  (1) 
-9.799581489406256e-09

>  <JCHEM_AVERAGE_POLARIZABILITY>  (1) 
25.923578127475032

>  <JCHEM_BIOAVAILABILITY>  (1) 
1

>  <JCHEM_DONOR_COUNT>  (1) 
1

>  <JCHEM_FORMAL_CHARGE>  (1) 
0

>  <JCHEM_GHOSE_FILTER>  (1) 
1

>  <JCHEM_IUPAC>  (1) 
5,5-dimethyl-3-[4-nitro-3-(trifluoromethyl)phenyl]imidazolidine-2,4-dione

>  <ALOGPS_LOGP>  (1) 
1.74

>  <JCHEM_LOGP>  (1) 
2.250776846

>  <ALOGPS_LOGS>  (1) 
-4.88

>  <JCHEM_MDDR_LIKE_RULE>  (1) 
0

>  <JCHEM_NEUTRAL_CHARGE>  (1) 
0

>  <JCHEM_NUMBER_OF_RINGS>  (1) 
2

>  <JCHEM_PHYSIOLOGICAL_CHARGE>  (1) 
0

>  <JCHEM_PKA_STRONGEST_ACIDIC>  (1) 
15.008640960398825

>  <JCHEM_PKA_STRONGEST_BASIC>  (1) 
-4.466075317381474

>  <JCHEM_POLAR_SURFACE_AREA>  (1) 
92.55000000000001

>  <JCHEM_REFRACTIVITY>  (1) 
67.22180000000002

>  <JCHEM_ROTATABLE_BOND_COUNT>  (1) 
3

>  <JCHEM_RULE_OF_FIVE>  (1) 
1

>  <ALOGPS_SOLUBILITY>  (1) 
4.19e-03 g/l

>  <JCHEM_TRADITIONAL_IUPAC>  (1) 
tetrahydrofolic acid

>  <JCHEM_VEBER_RULE>  (1) 
0

>  <DRUGBANK_ID>  (1) 
DB00665

>  <SECONDARY_ACCESSION_NUMBERS>  (1) 
APRD00150

>  <DRUG_GROUPS>  (1) 
approved; investigational

>  <GENERIC_NAME>  (1) 
Nilutamide

>  <SYNONYMS>  (1) 
5,5-Dimethyl-3-(α,α,α-trifluoro-4-nitro-m-tolyl)hydantoin; Nilutamida; Nilutamide; Nilutamidum

>  <PRODUCTS>  (1) 
Anandron; Anandron - Tab 100mg; Anandron Tab 100mg; Anandron Tab 50mg; Nilandron; Nilutamide

$$$$
