
     RDKit          2D

 19 17  0  0  0  0  0  0  0  0999 V2000
    0.0000   -0.2062    0.0000 C   0  0  0  0  0  0  0  0  0  0  0  0
   -0.7144    0.2062    0.0000 C   0  0  0  0  0  0  0  0  0  0  0  0
    0.7144    0.2062    0.0000 C   0  0  0  0  0  0  0  0  0  0  0  0
   -1.4289   -0.2062    0.0000 C   0  0  0  0  0  0  0  0  0  0  0  0
    1.4289   -0.2062    0.0000 C   0  0  0  0  0  0  0  0  0  0  0  0
   -2.1434    0.2062    0.0000 C   0  0  0  0  0  0  0  0  0  0  0  0
    0.0000   -1.0312    0.0000 O   0  0  0  0  0  0  0  0  0  0  0  0
   -0.7144    1.0312    0.0000 O   0  0  0  0  0  0  0  0  0  0  0  0
    0.7144    1.0312    0.0000 O   0  0  0  0  0  0  0  0  0  0  0  0
   -1.4289   -1.0312    0.0000 O   0  0  0  0  0  0  0  0  0  0  0  0
    1.4289   -1.0312    0.0000 O   0  0  0  0  0  0  0  0  0  0  0  0
    2.1434    0.2062    0.0000 O   0  0  0  0  0  0  0  0  0  0  0  0
   -2.8578   -0.2062    0.0000 O   0  0  0  0  0  0  0  0  0  0  0  0
   -2.1434    1.0312    0.0000 O   0  0  0  0  0  0  0  0  0  0  0  0
    2.8578    0.6187    0.0000 Ca  0  0  0  0  0 15  0  0  0  0  0  0
    0.0000    0.6187    0.0000 H   0  0  0  0  0  0  0  0  0  0  0  0
   -0.7144   -0.6187    0.0000 H   0  0  0  0  0  0  0  0  0  0  0  0
    0.7144   -0.6187    0.0000 H   0  0  0  0  0  0  0  0  0  0  0  0
   -1.4289    0.6187    0.0000 H   0  0  0  0  0  0  0  0  0  0  0  0
  1  2  1  0
  1  3  1  0
  2  4  1  0
  3  5  1  0
  4  6  1  0
  1  7  1  0
  2  8  1  0
  3  9  1  0
  4 10  1  0
 11  5  2  0
 12  5  1  0
 13  6  2  0
 14  6  1  0
  1 16  1  6
  2 17  1  6
  3 18  1  1
  4 19  1  6
M  CHG  3  12  -1  14  -1  15   2
M  END
>  <DATABASE_ID>  (1) 
DB13962

>  <DATABASE_NAME>  (1) 
drugbank

>  <SMILES>  (1) 
[Ca++].[H][C@](O)(C([O-])=O)[C@@]([H])(O)[C@]([H])(O)[C@]([H])(O)C([O-])=O

>  <INCHI_IDENTIFIER>  (1) 
InChI=1S/C6H10O8.Ca/c7-1(3(9)5(11)12)2(8)4(10)6(13)14;/h1-4,7-10H,(H,11,12)(H,13,14);/q;+2/p-2/t1-,2-,3-,4+;/m0./s1

>  <INCHI_KEY>  (1) 
UGZVNIRNPPEDHM-SBBOJQDXSA-L

>  <FORMULA>  (1) 
C6H8CaO8

>  <MOLECULAR_WEIGHT>  (1) 
248.2

>  <EXACT_MASS>  (1) 
247.9845081

>  <JCHEM_ACCEPTOR_COUNT>  (1) 
8

>  <JCHEM_ATOM_COUNT>  (1) 
23

>  <JCHEM_AVERAGE_POLARIZABILITY>  (1) 
16.23702962701897

>  <JCHEM_BIOAVAILABILITY>  (1) 
1

>  <JCHEM_DONOR_COUNT>  (1) 
4

>  <JCHEM_FORMAL_CHARGE>  (1) 
0

>  <JCHEM_GHOSE_FILTER>  (1) 
0

>  <JCHEM_IUPAC>  (1) 
calcium (2R,3S,4S,5S)-2,3,4,5-tetrahydroxyhexanedioate

>  <ALOGPS_LOGP>  (1) 
-0.78

>  <JCHEM_LOGP>  (1) 
-3.089469772666667

>  <ALOGPS_LOGS>  (1) 
-0.53

>  <JCHEM_MDDR_LIKE_RULE>  (1) 
0

>  <JCHEM_NUMBER_OF_RINGS>  (1) 
0

>  <JCHEM_PHYSIOLOGICAL_CHARGE>  (1) 
-2

>  <JCHEM_PKA>  (1) 
3.541069050878398

>  <JCHEM_PKA_STRONGEST_ACIDIC>  (1) 
2.8286041594909985

>  <JCHEM_PKA_STRONGEST_BASIC>  (1) 
-3.7307040369214137

>  <JCHEM_POLAR_SURFACE_AREA>  (1) 
161.18

>  <JCHEM_REFRACTIVITY>  (1) 
59.812599999999996

>  <JCHEM_ROTATABLE_BOND_COUNT>  (1) 
5

>  <JCHEM_RULE_OF_FIVE>  (1) 
1

>  <ALOGPS_SOLUBILITY>  (1) 
9.01e+01 g/l

>  <JCHEM_TRADITIONAL_IUPAC>  (1) 
calcium D-glucarate

>  <JCHEM_VEBER_RULE>  (1) 
0

>  <DRUGBANK_ID>  (1) 
DB13962

>  <DRUG_GROUPS>  (1) 
approved; withdrawn

>  <GENERIC_NAME>  (1) 
Calcium saccharate

>  <SYNONYMS>  (1) 
Calcii saccharas; Calcium D-glucarate; Calcium D-saccharate; Calcium glucarate; Calcium saccharate; Sacarato calcico; Saccharate de calcium; Saccharated lime

>  <PRODUCTS>  (1) 
Tempo Balance

$$$$
