
     RDKit          2D

  7  6  0  0  0  0  0  0  0  0999 V2000
    1.0447    0.6679    0.0000 O   0  0  0  0  0  0  0  0  0  0  0  0
    1.7529   -0.6679    0.0000 O   0  0  0  0  0  0  0  0  0  0  0  0
   -1.7529   -0.2506    0.0000 O   0  0  0  0  0  0  0  0  0  0  0  0
    1.0447   -0.2506    0.0000 C   0  0  0  0  0  0  0  0  0  0  0  0
    0.3330   -0.6679    0.0000 C   0  0  0  0  0  0  0  0  0  0  0  0
   -0.3751   -0.2506    0.0000 C   0  0  0  0  0  0  0  0  0  0  0  0
   -1.0868   -0.6679    0.0000 C   0  0  0  0  0  0  0  0  0  0  0  0
  1  4  2  0
  2  4  1  0
  3  7  1  0
  4  5  1  0
  5  6  1  0
  6  7  1  0
M  END
>  <DATABASE_ID>  (1) 
DB01440

>  <DATABASE_NAME>  (1) 
drugbank

>  <SMILES>  (1) 
OCCCC(O)=O

>  <INCHI_IDENTIFIER>  (1) 
InChI=1S/C4H8O3/c5-3-1-2-4(6)7/h5H,1-3H2,(H,6,7)

>  <INCHI_KEY>  (1) 
SJZRECIVHVDYJC-UHFFFAOYSA-N

>  <FORMULA>  (1) 
C4H8O3

>  <MOLECULAR_WEIGHT>  (1) 
104.1045

>  <EXACT_MASS>  (1) 
104.047344122

>  <JCHEM_ACCEPTOR_COUNT>  (1) 
3

>  <JCHEM_ATOM_COUNT>  (1) 
15

>  <JCHEM_AVERAGE_POLARIZABILITY>  (1) 
10.166134903961725

>  <JCHEM_BIOAVAILABILITY>  (1) 
1

>  <JCHEM_DONOR_COUNT>  (1) 
2

>  <JCHEM_FORMAL_CHARGE>  (1) 
0

>  <JCHEM_GHOSE_FILTER>  (1) 
0

>  <JCHEM_IUPAC>  (1) 
4-hydroxybutanoic acid

>  <ALOGPS_LOGP>  (1) 
-0.63

>  <JCHEM_LOGP>  (1) 
-0.5149198190000002

>  <ALOGPS_LOGS>  (1) 
0.68

>  <JCHEM_MDDR_LIKE_RULE>  (1) 
0

>  <JCHEM_NUMBER_OF_RINGS>  (1) 
0

>  <JCHEM_PHYSIOLOGICAL_CHARGE>  (1) 
-1

>  <JCHEM_PKA>  (1) 
15.98255965448772

>  <JCHEM_PKA_STRONGEST_ACIDIC>  (1) 
4.440873954984472

>  <JCHEM_PKA_STRONGEST_BASIC>  (1) 
-2.3817124873466886

>  <JCHEM_POLAR_SURFACE_AREA>  (1) 
57.53

>  <JCHEM_REFRACTIVITY>  (1) 
23.800299999999996

>  <JCHEM_ROTATABLE_BOND_COUNT>  (1) 
3

>  <JCHEM_RULE_OF_FIVE>  (1) 
1

>  <ALOGPS_SOLUBILITY>  (1) 
4.94e+02 g/l

>  <JCHEM_TRADITIONAL_IUPAC>  (1) 
gamma hydroxybutyric acid

>  <JCHEM_VEBER_RULE>  (1) 
0

>  <DRUGBANK_ID>  (1) 
DB01440

>  <DRUG_GROUPS>  (1) 
approved; illicit; investigational

>  <GENERIC_NAME>  (1) 
gamma-Hydroxybutyric acid

>  <SYNONYMS>  (1) 
3-carboxypropoxy acid; 4-hydroxy-butyric acid; 4-hydroxybutanoate; 4-hydroxybutanoic acid; 4-Hydroxybutyric acid; gamma-Hydroxybutyrate; gamma-Hydroxybutyric acid; GHB; oxy-n-butyric acid; Oxybate; γ-Hydroxybutyric acid

>  <PRODUCTS>  (1) 
Xywav

>  <SALTS>  (1) 
Calcium oxybate; Magnesium oxybate; Potassium oxybate

$$$$
