
     RDKit          2D

  6  4  0  0  0  0  0  0  0  0999 V2000
    0.0000    0.8250    0.0000 O   0  0  0  0  0  0  0  0  0  0  0  0
   -0.0000   -0.8250    0.0000 O   0  0  0  0  0  0  0  0  0  0  0  0
   -0.8250    0.0000    0.0000 O   0  0  0  0  0  0  0  0  0  0  0  0
    0.8250   -0.0000    0.0000 O   0  0  0  0  0  0  0  0  0  0  0  0
    0.0000   -0.0000    0.0000 S   0  0  0  0  0  0  0  0  0  0  0  0
    3.1821    0.0000    0.0000 Zn  0  0  0  0  0 15  0  0  0  0  0  0
  5  1  1  0
  5  2  1  0
  5  3  2  0
  5  4  2  0
M  CHG  3   1  -1   2  -1   6   2
M  END
>  <DATABASE_ID>  (1) 
DB09322

>  <DATABASE_NAME>  (1) 
drugbank

>  <SMILES>  (1) 
[Zn++].[O-]S([O-])(=O)=O

>  <INCHI_IDENTIFIER>  (1) 
InChI=1S/H2O4S.Zn/c1-5(2,3)4;/h(H2,1,2,3,4);/q;+2/p-2

>  <INCHI_KEY>  (1) 
NWONKYPBYAMBJT-UHFFFAOYSA-L

>  <FORMULA>  (1) 
O4SZn

>  <MOLECULAR_WEIGHT>  (1) 
161.472

>  <EXACT_MASS>  (1) 
159.880875756

>  <JCHEM_ACCEPTOR_COUNT>  (1) 
4

>  <JCHEM_ATOM_COUNT>  (1) 
6

>  <JCHEM_AVERAGE_NEUTRAL_MICROSPECIES_CHARGE>  (1) 
-1.9999960608374163

>  <JCHEM_AVERAGE_POLARIZABILITY>  (1) 
5.805278247285028

>  <JCHEM_BIOAVAILABILITY>  (1) 
1

>  <JCHEM_DONOR_COUNT>  (1) 
0

>  <JCHEM_FORMAL_CHARGE>  (1) 
0

>  <JCHEM_GHOSE_FILTER>  (1) 
0

>  <JCHEM_IUPAC>  (1) 
zinc(2+) sulfate

>  <JCHEM_LOGP>  (1) 
-0.8415520233333333

>  <JCHEM_MDDR_LIKE_RULE>  (1) 
0

>  <JCHEM_NEUTRAL_CHARGE>  (1) 
-2

>  <JCHEM_NUMBER_OF_RINGS>  (1) 
0

>  <JCHEM_PHYSIOLOGICAL_CHARGE>  (1) 
-2

>  <JCHEM_PKA>  (1) 
1.8964254257138706

>  <JCHEM_PKA_STRONGEST_ACIDIC>  (1) 
-3.0343490541919906

>  <JCHEM_POLAR_SURFACE_AREA>  (1) 
80.25999999999999

>  <JCHEM_REFRACTIVITY>  (1) 
11.5274

>  <JCHEM_ROTATABLE_BOND_COUNT>  (1) 
0

>  <JCHEM_RULE_OF_FIVE>  (1) 
1

>  <JCHEM_TRADITIONAL_IUPAC>  (1) 
biotin

>  <JCHEM_VEBER_RULE>  (1) 
0

>  <DRUGBANK_ID>  (1) 
DB09322

>  <DRUG_GROUPS>  (1) 
approved; investigational

>  <GENERIC_NAME>  (1) 
Zinc sulfate

>  <SYNONYMS>  (1) 
Zinc sulfate; Zinc sulfate (anhydrous); Zinc sulfate anhydrous; Zinc sulfate, anhydrous; Zinc sulphate; Zinc sulphate anhydrous; Zinc sulphate, anhydrous

>  <PRODUCTS>  (1) 
8-symptom Relief; Adeks - Dps; Allergy Eye Drops; Anodan-HC 10mg Suppositories; Anodan-HC Ointment; Anodan-plus; Anodan-plus Ointment; Anu-aide - Ont Top 0.5%; Anugesic-HC Ointment; Anugesic-HC Suppositories; Anusol Plus Ointment; Anusol Plus Suppositories; Anusol-HC Ointment; Anusol-HC Suppositories; Anuzinc HC; Anuzinc HC Plus; Anuzinc Plus Suppositories; Calcium and Magnesium W Zinc Tab; Clear Eyes Acr By Murine; Clear Eyes Allergy; Clear Eyes Complete 7 Sympton Relief; Dermagran Moisturizing Spray; Eau Resolutive Soker; Efferlife Multivitamins and Minerals; Egozinc-HC; Eky Efferlife Vitamin C 1000mg With Zinc; Female Advantage; Formula EC; Hemorrhoid Ointment; Hemorrhoidal Ointment; Hemorrhoidal Ointment With Anesthetic for Extra Pain Relief; Jampzinc-HC; M T E 4 Concentrate Inj; M.T.E.-4; M.T.E.-4 Concentrated; M.T.E.-6 Concentrated; Male Advantage; Mega Min Capsules; Mega Vitaminerals; Micro +4 Regular Strength; Micro Plus 4 Concentrate; Micro Plus 5 Concentrate; Micro Plus 6 (concentrate); Micro Plus 6 (pediatric); Micro Plus 6 (regular); Micro Zn; Micro+ Te Pediatric; Multiple Trace Metal Additive Solution; Multiple Vitamins and Minerals; Multiple Vitamins and Minerals Capsules; Multitrace -4; Multitrace -4 Pediatric; Multitrace-4; Multitrace-4 Neonatal; Multitrace-5; Neo-vites & Minerals Tab; Nutrol E-400 Plus Zinc Et Selenium Cap; One-A-day Advance Men's; Onyx; Optrex Eye Lotion; Optrex Eye Lotion - Liq Oph; Orifer F; Polymine Avec Zinc Et Cuivre; Prenatal Vitamin and Mineral Supplement; Prenatal Vitamin and Mineral Supplement Tab; Proctodan-HC Ointment; Proctodan-HC Suppositories; Ratio-hemcort-HC; Rectogel HC; Riva-sol HC Ointment; Rivasol-HC Suppositories; Rohto All-In-One; Rohto Ice; Sandoz Anuzinc HC; Sandoz Anuzinc HC Plus; Sandoz Anuzinc Plus; Smofkabiven; Smofkabiven Extra Nitrogen; Smofkabiven Peripheral; Spd Tab; Stress B Complex With C,e, Zinc and Copper; Stress Complex 600 Avec Vit E Cuivre Zinc; Stress Tab With Zinc, Copper and Vitamin E; Stresstabs + Zinc-copper; Supravite Stress Avec Vit E Cuivre Et Zinc; Surbex-500 With Zinc; TL-Care DHA; Tandem Plus; Totalvit Plus; Trace Elements 4; Tricare Prenatal DHA One; Tricare Prenatal DHA One Rx Multivitamin; Tricare Prenatal DHA One With Folate; Visine A.C. Ophthalmic Sol; Visine Multi-symptom; Visine for Allergy 3 Symptom Relief; Vitogen B Stress C Vit E Zinc & Cop; Zin Pro Tab 90mg; Zinc Liquid- 15mg/5ml; Zinc Oral Spray; Zinc Sulfate; Zinc Sulfate Injection, USP; Zinc Tally Liq 13.5mg/10ml; Zincfrin; Zincfrin A

>  <SALTS>  (1) 
Zinc sulfate heptahydrate; Zinc sulfate hexahydrate; Zinc sulfate monohydrate

$$$$
