
     RDKit          2D

 22 23  0  0  0  0  0  0  0  0999 V2000
    2.1435   -2.0625    0.0000 N   0  0  0  0  0  0  0  0  0  0  0  0
    2.8579   -1.6500    0.0000 C   0  0  0  0  0  0  0  0  0  0  0  0
    1.4290   -0.8249    0.0000 C   0  0  0  0  0  0  0  0  0  0  0  0
    2.1435   -0.4124    0.0000 C   0  0  0  0  0  0  0  0  0  0  0  0
    1.4290   -1.6500    0.0000 C   0  0  0  0  0  0  0  0  0  0  0  0
    0.7144   -2.0625    0.0000 C   0  0  0  0  0  0  0  0  0  0  0  0
    0.7144   -0.4124    0.0000 C   0  0  0  0  0  0  0  0  0  0  0  0
    0.0000   -1.6500    0.0000 C   0  0  0  0  0  0  0  0  0  0  0  0
    2.8579   -0.8249    0.0000 C   0  0  0  0  0  0  0  0  0  0  0  0
    0.0000   -0.8249    0.0000 C   0  0  0  0  0  0  0  0  0  0  0  0
   -0.7144   -2.0625    0.0000 Cl  0  0  0  0  0  0  0  0  0  0  0  0
    2.1435    0.4125    0.0000 N   0  0  0  0  0  0  0  0  0  0  0  0
   -1.4289    0.8250    0.0000 N   0  0  0  0  0  0  0  0  0  0  0  0
    1.4290    0.8250    0.0000 C   0  0  0  0  0  0  0  0  0  0  0  0
    0.0000    0.8250    0.0000 C   0  0  0  0  0  0  0  0  0  0  0  0
   -0.7144    0.4125    0.0000 C   0  0  0  0  0  0  0  0  0  0  0  0
   -1.4289    1.6501    0.0000 C   0  0  0  0  0  0  0  0  0  0  0  0
   -2.1434    0.4125    0.0000 C   0  0  0  0  0  0  0  0  0  0  0  0
    0.7145    0.4125    0.0000 C   0  0  0  0  0  0  0  0  0  0  0  0
    1.4290    1.6501    0.0000 C   0  0  0  0  0  0  0  0  0  0  0  0
   -2.1434    2.0625    0.0000 C   0  0  0  0  0  0  0  0  0  0  0  0
   -2.8579    0.8250    0.0000 C   0  0  0  0  0  0  0  0  0  0  0  0
  1  2  2  0
  3  4  1  0
 12  4  1  0
  5  1  1  0
  3  5  2  0
  6  5  1  0
  3  7  1  0
  8  6  2  0
 11  8  1  0
  9  4  2  0
  2  9  1  0
 10  8  1  0
  7 10  2  0
 14 12  1  0
 16 13  1  0
 17 13  1  0
 18 13  1  0
 19 14  1  0
 20 14  1  0
 19 15  1  0
 16 15  1  0
 21 17  1  0
 22 18  1  0
M  END
>  <DATABASE_ID>  (1) 
DB00608

>  <DATABASE_NAME>  (1) 
drugbank

>  <SMILES>  (1) 
CCN(CC)CCCC(C)NC1=CC=NC2=CC(Cl)=CC=C12

>  <INCHI_IDENTIFIER>  (1) 
InChI=1S/C18H26ClN3/c1-4-22(5-2)12-6-7-14(3)21-17-10-11-20-18-13-15(19)8-9-16(17)18/h8-11,13-14H,4-7,12H2,1-3H3,(H,20,21)

>  <INCHI_KEY>  (1) 
WHTVZRBIWZFKQO-UHFFFAOYSA-N

>  <FORMULA>  (1) 
C18H26ClN3

>  <MOLECULAR_WEIGHT>  (1) 
319.872

>  <EXACT_MASS>  (1) 
319.181525554

>  <JCHEM_ACCEPTOR_COUNT>  (1) 
3

>  <JCHEM_ATOM_COUNT>  (1) 
48

>  <JCHEM_AVERAGE_NEUTRAL_MICROSPECIES_CHARGE>  (1) 
1.6580820943559722

>  <JCHEM_AVERAGE_POLARIZABILITY>  (1) 
37.287903416928586

>  <JCHEM_BIOAVAILABILITY>  (1) 
1

>  <JCHEM_DONOR_COUNT>  (1) 
1

>  <JCHEM_FORMAL_CHARGE>  (1) 
0

>  <JCHEM_GHOSE_FILTER>  (1) 
1

>  <JCHEM_IUPAC>  (1) 
7-chloro-N-[5-(diethylamino)pentan-2-yl]quinolin-4-amine

>  <ALOGPS_LOGP>  (1) 
5.28

>  <JCHEM_LOGP>  (1) 
3.933881141333334

>  <ALOGPS_LOGS>  (1) 
-4.26

>  <JCHEM_MDDR_LIKE_RULE>  (1) 
0

>  <JCHEM_NEUTRAL_CHARGE>  (1) 
2

>  <JCHEM_NUMBER_OF_RINGS>  (1) 
2

>  <JCHEM_PHYSIOLOGICAL_CHARGE>  (1) 
2

>  <JCHEM_PKA_STRONGEST_BASIC>  (1) 
10.324447273782475

>  <JCHEM_POLAR_SURFACE_AREA>  (1) 
28.16

>  <JCHEM_REFRACTIVITY>  (1) 
96.42300000000002

>  <JCHEM_ROTATABLE_BOND_COUNT>  (1) 
8

>  <JCHEM_RULE_OF_FIVE>  (1) 
1

>  <ALOGPS_SOLUBILITY>  (1) 
1.75e-02 g/l

>  <JCHEM_TRADITIONAL_IUPAC>  (1) 
6-bromo-4-[(dimethylamino)methyl]-3-(ethoxycarbonyl)-2-[(phenylsulfanyl)methyl]-1H-indol-5-yl sulfate

>  <JCHEM_VEBER_RULE>  (1) 
1

>  <DRUGBANK_ID>  (1) 
DB00608

>  <SECONDARY_ACCESSION_NUMBERS>  (1) 
APRD00468

>  <DRUG_GROUPS>  (1) 
approved; investigational; vet_approved

>  <GENERIC_NAME>  (1) 
Chloroquine

>  <SYNONYMS>  (1) 
Chloraquine; Chlorochin; Chloroquina; Chloroquine; Chloroquinium; Chloroquinum; Cloroquina; N4-(7-chloro-4-quinolinyl)-N1,N1-diethyl-1,4-pentanediamine

>  <PRODUCTS>  (1) 
Aralen; Chloroquine; Chloroquine Phosphate; Chloroquine phosphate; Teva-chloroquine

>  <INTERNATIONAL_BRANDS>  (1) 
Artrichin; Bemaphate; Capquin; Malarex; Nivaquine B; Resoquine; Reumachlor; Sanoquin

>  <SALTS>  (1) 
Chloroquine hydrochloride; Chloroquine phosphate; Chloroquine sulfate

$$$$
