
     RDKit          2D

 29 30  0  0  0  0  0  0  0  0999 V2000
   -4.9788   -0.6173    0.0000 C   0  0  0  0  0  0  0  0  0  0  0  0
   -4.2718   -0.2091    0.0000 C   0  0  0  0  0  0  0  0  0  0  0  0
   -3.5549   -0.6173    0.0000 C   0  0  0  0  0  0  0  0  0  0  0  0
   -2.8479   -0.2091    0.0000 C   0  0  0  0  0  0  0  0  0  0  0  0
   -2.1309   -0.6173    0.0000 C   0  0  0  0  0  0  0  0  0  0  0  0
   -2.1309   -1.4439    0.0000 C   0  0  0  0  0  0  0  0  0  0  0  0
   -2.8479   -1.8521    0.0000 C   0  0  0  0  0  0  0  0  0  0  0  0
   -1.4239   -0.2091    0.0000 C   0  0  0  0  0  0  0  0  0  0  0  0
   -0.7069   -0.6173    0.0000 O   0  0  0  0  0  0  0  0  0  0  0  0
    0.0000   -0.2091    0.0000 C   0  0  0  0  0  0  0  0  0  0  0  0
    0.0000    0.6174    0.0000 O   0  0  0  0  0  0  0  0  0  0  0  0
    0.7069   -0.6173    0.0000 C   0  0  0  0  0  0  0  0  0  0  0  0
    1.4239   -0.2091    0.0000 C   0  0  0  0  0  0  0  0  0  0  0  0
    1.4239    0.6174    0.0000 C   0  0  0  0  0  0  0  0  0  0  0  0
    0.7069    1.0256    0.0000 C   0  0  0  0  0  0  0  0  0  0  0  0
    0.7069    1.8422    0.0000 C   0  0  0  0  0  0  0  0  0  0  0  0
    1.4239    2.2604    0.0000 C   0  0  0  0  0  0  0  0  0  0  0  0
    2.1309    1.8422    0.0000 C   0  0  0  0  0  0  0  0  0  0  0  0
    2.1309    1.0256    0.0000 C   0  0  0  0  0  0  0  0  0  0  0  0
    2.1309   -0.6173    0.0000 C   0  0  0  0  0  0  0  0  0  0  0  0
    2.8479   -0.2091    0.0000 C   0  0  0  0  0  0  0  0  0  0  0  0
    3.5548   -0.6173    0.0000 C   0  0  0  0  0  0  0  0  0  0  0  0
    3.5548   -1.4439    0.0000 C   0  0  0  0  0  0  0  0  0  0  0  0
    2.8479   -1.8521    0.0000 C   0  0  0  0  0  0  0  0  0  0  0  0
    2.1309   -1.4439    0.0000 C   0  0  0  0  0  0  0  0  0  0  0  0
    4.2718   -1.8521    0.0000 O   0  0  0  0  0  0  0  0  0  0  0  0
    4.9788   -1.4439    0.0000 C   0  0  0  0  0  0  0  0  0  0  0  0
    0.7069   -1.4439    0.0000 C   0  0  0  0  0  0  0  0  0  0  0  0
    0.7069   -2.2604    0.0000 N   0  0  0  0  0  0  0  0  0  0  0  0
  1  2  1  0
  2  3  1  0
  3  4  1  0
  4  5  1  0
  5  6  1  0
  5  8  1  0
  6  7  1  0
  8  9  1  0
  9 10  1  0
 10 11  2  0
 10 12  1  0
 12 13  2  3
 12 28  1  0
 13 14  1  0
 13 20  1  0
 14 15  2  0
 14 19  1  0
 15 16  1  0
 16 17  2  0
 17 18  1  0
 18 19  2  0
 20 21  2  0
 20 25  1  0
 21 22  1  0
 22 23  2  0
 23 24  1  0
 23 26  1  0
 24 25  2  0
 26 27  1  0
 28 29  3  0
M  END
>  <DATABASE_ID>  (1) 
DB11226

>  <DATABASE_NAME>  (1) 
drugbank

>  <SMILES>  (1) 
CCCCC(CC)COC(=O)C(C#N)=C(C1=CC=CC=C1)C1=CC=C(OC)C=C1

>  <INCHI_IDENTIFIER>  (1) 
InChI=1S/C25H29NO3/c1-4-6-10-19(5-2)18-29-25(27)23(17-26)24(20-11-8-7-9-12-20)21-13-15-22(28-3)16-14-21/h7-9,11-16,19H,4-6,10,18H2,1-3H3

>  <INCHI_KEY>  (1) 
WAJCJDLRJVDSSD-UHFFFAOYSA-N

>  <FORMULA>  (1) 
C25H29NO3

>  <MOLECULAR_WEIGHT>  (1) 
391.511

>  <EXACT_MASS>  (1) 
391.214743798

>  <JCHEM_ACCEPTOR_COUNT>  (1) 
3

>  <JCHEM_ATOM_COUNT>  (1) 
58

>  <JCHEM_AVERAGE_POLARIZABILITY>  (1) 
44.49464495265141

>  <JCHEM_BIOAVAILABILITY>  (1) 
0

>  <JCHEM_DONOR_COUNT>  (1) 
0

>  <JCHEM_FORMAL_CHARGE>  (1) 
0

>  <JCHEM_GHOSE_FILTER>  (1) 
0

>  <JCHEM_IUPAC>  (1) 
2-ethylhexyl 2-cyano-3-(4-methoxyphenyl)-3-phenylprop-2-enoate

>  <ALOGPS_LOGP>  (1) 
6.19

>  <JCHEM_LOGP>  (1) 
6.6252774190000014

>  <ALOGPS_LOGS>  (1) 
-5.56

>  <JCHEM_MDDR_LIKE_RULE>  (1) 
0

>  <JCHEM_NUMBER_OF_RINGS>  (1) 
2

>  <JCHEM_PHYSIOLOGICAL_CHARGE>  (1) 
0

>  <JCHEM_PKA_STRONGEST_BASIC>  (1) 
-4.827168058220119

>  <JCHEM_POLAR_SURFACE_AREA>  (1) 
59.32

>  <JCHEM_REFRACTIVITY>  (1) 
125.04670000000002

>  <JCHEM_ROTATABLE_BOND_COUNT>  (1) 
11

>  <JCHEM_RULE_OF_FIVE>  (1) 
0

>  <ALOGPS_SOLUBILITY>  (1) 
1.09e-03 g/l

>  <JCHEM_TRADITIONAL_IUPAC>  (1) 
ethylhexyl methoxycrylene

>  <JCHEM_VEBER_RULE>  (1) 
0

>  <DRUGBANK_ID>  (1) 
DB11226

>  <DRUG_GROUPS>  (1) 
approved

>  <GENERIC_NAME>  (1) 
Ethylhexyl methoxycrylene

>  <PRODUCTS>  (1) 
Almost Makeup SPF 15; Almost Makeup SPF 18; Sunscreen SPF30

>  <INTERNATIONAL_BRANDS>  (1) 
Solastay S1

$$$$
