
     RDKit          2D

 13  8  0  0  0  0  0  0  0  0999 V2000
    1.5321    0.6464    0.0000 Ca  0  0  0  0  0 15  0  0  0  0  0  0
   -0.7219    1.2503    0.0000 Ca  0  0  0  0  0 15  0  0  0  0  0  0
   -1.3258   -1.0036    0.0000 Ca  0  0  0  0  0 15  0  0  0  0  0  0
    0.8176    0.2339    0.0000 O   0  0  0  0  0  0  0  0  0  0  0  0
   -0.3094    0.5359    0.0000 O   0  0  0  0  0  0  0  0  0  0  0  0
   -0.6113   -0.5911    0.0000 O   0  0  0  0  0  0  0  0  0  0  0  0
    0.5156   -0.8931    0.0000 O   0  0  0  0  0  0  0  0  0  0  0  0
    0.1031   -0.1786    0.0000 P   0  0  0  0  0  0  0  0  0  0  0  0
    4.5964    0.8250    0.0000 O   0  0  0  0  0  0  0  0  0  0  0  0
    4.5964   -0.8250    0.0000 O   0  0  0  0  0  0  0  0  0  0  0  0
    3.7714    0.0000    0.0000 O   0  0  0  0  0  0  0  0  0  0  0  0
    5.4214   -0.0000    0.0000 O   0  0  0  0  0  0  0  0  0  0  0  0
    4.5964   -0.0000    0.0000 P   0  0  0  0  0  0  0  0  0  0  0  0
  8  4  1  0
  8  5  1  0
  8  6  1  0
  8  7  2  0
 13  9  1  0
 13 10  1  0
 13 11  1  0
 13 12  2  0
M  CHG  8   1   2   2   2   3   2   4  -1   5  -1   6  -1   9  -1  10  -1
M  CHG  1  11  -1
M  END
>  <DATABASE_ID>  (1) 
DB11348

>  <DATABASE_NAME>  (1) 
drugbank

>  <SMILES>  (1) 
[Ca++].[Ca++].[Ca++].[O-]P([O-])([O-])=O.[O-]P([O-])([O-])=O

>  <INCHI_IDENTIFIER>  (1) 
InChI=1S/3Ca.2H3O4P/c;;;2*1-5(2,3)4/h;;;2*(H3,1,2,3,4)/q3*+2;;/p-6

>  <INCHI_KEY>  (1) 
QORWJWZARLRLPR-UHFFFAOYSA-H

>  <FORMULA>  (1) 
Ca3O8P2

>  <MOLECULAR_WEIGHT>  (1) 
310.177

>  <EXACT_MASS>  (1) 
309.794613465

>  <JCHEM_ACCEPTOR_COUNT>  (1) 
4

>  <JCHEM_ATOM_COUNT>  (1) 
13

>  <JCHEM_AVERAGE_NEUTRAL_MICROSPECIES_CHARGE>  (1) 
-1.6909402832708205

>  <JCHEM_AVERAGE_POLARIZABILITY>  (1) 
4.932137383430433

>  <JCHEM_BIOAVAILABILITY>  (1) 
1

>  <JCHEM_DONOR_COUNT>  (1) 
0

>  <JCHEM_FORMAL_CHARGE>  (1) 
0

>  <JCHEM_GHOSE_FILTER>  (1) 
0

>  <JCHEM_IUPAC>  (1) 
tricalcium diphosphate

>  <ALOGPS_LOGP>  (1) 
0.41

>  <JCHEM_LOGP>  (1) 
-1.0201038226666665

>  <ALOGPS_LOGS>  (1) 
-0.80

>  <JCHEM_MDDR_LIKE_RULE>  (1) 
0

>  <JCHEM_NEUTRAL_CHARGE>  (1) 
-2

>  <JCHEM_NUMBER_OF_RINGS>  (1) 
0

>  <JCHEM_PHYSIOLOGICAL_CHARGE>  (1) 
-2

>  <JCHEM_PKA>  (1) 
6.951626889535468

>  <JCHEM_PKA_STRONGEST_ACIDIC>  (1) 
1.7961261340181294

>  <JCHEM_POLAR_SURFACE_AREA>  (1) 
86.25

>  <JCHEM_REFRACTIVITY>  (1) 
11.2868

>  <JCHEM_ROTATABLE_BOND_COUNT>  (1) 
0

>  <JCHEM_RULE_OF_FIVE>  (1) 
1

>  <ALOGPS_SOLUBILITY>  (1) 
4.88e+01 g/l

>  <JCHEM_TRADITIONAL_IUPAC>  (1) 
ethane

>  <JCHEM_VEBER_RULE>  (1) 
0

>  <DRUGBANK_ID>  (1) 
DB11348

>  <SECONDARY_ACCESSION_NUMBERS>  (1) 
DB11052; DB11053

>  <DRUG_GROUPS>  (1) 
approved; investigational

>  <GENERIC_NAME>  (1) 
Calcium Phosphate

>  <SYNONYMS>  (1) 
calcio fosfato; Calcium phosphates; Phosphoric acid, calcium salt

>  <PRODUCTS>  (1) 
28tak Gum Care Tooth; Acidophilus/Pectin; Acti Hydroxyapatite Powder; BasoSAN; Biotrelle; CAREDO Professional Cavities Treatment Toothpastes 100g; CAREDO Repairing Dental Caries for Kids Toothpastes 50g; Calcium PNV; Central-vite 18 Essential; Centrum Specialist Prenatal; Century Complete; Children's Chewable Multivitamin Complete With Minerals; Children's Chewable Multivitamin and Multimineral; Clean Breath Tooth; Complete Multivitamins and Minerals for Children; DIO Enamel Coating Pen Pro Tooth; Dr. Zenni Tooth for Sensitive Tooth; Dr.EL GUM CARE TOOTH; Exoden Sensitive; Folcal DHA; Folivane-PRx DHA; Fraiche 5000 Kids Dental Bubble Gum; Fraiche 5000 Kids Plus Dental Bubble Gum; Fraiche 5000 Previ; Gnc Calcium With Magnesium and Vitamin D; Gray Salt; Gray Salt Tooth; HYDROGEMToothpaste; High Potency Multivitamins & Minerals Caplets; Hydroxyapatite Powder; Ifb; J.T. Formula; K.L. Vitamin-mineral; KUNDAL Sensitive Dental Care Tooth (Apple Chamomile Mint); L.G.I.T.; LACSISN perfect sensitive; Milk Calcium With Vitamins C, D, and Phosphorous; Mineralex; Multiple Vitamins & Minerals Tablets; Multiple Vitamins and Minerals; Multivitamines Et Mineraux; Multivitamines Et Mineraux Junior Regulier; Multivitamines Et Mineraux Reguliers / Regular Multivitamins and Minerals; Multivitamins and Minerals - Complete; Multivitamins and Minerals Tablets; Multivitamins and Minerals for Men; Multivitamins and Minerals for Women; Multivitamins and Minerals for Young Men; Multivitamins and Minerals for Young Women; Multivitamins and Multiminerals Formula Regular Tablet; NAVI MAXON Sirin Doctor; Natelle One; Nexa Select; Onyx; Osteo Formula; PNV Prenatal Vitamin Plus Vitamin A; PreNexa; PreNexa premier; Prenaissance; Probistor; Salt Tooth; Saltrain Tooth; Spectrum Performa Multivitamins and Minerals Tablets; Stom #2; Swical Extra-fort; TL-Select; TL-Select DHA; Taron-prex Prenatal; Triveen-PRx RNF; VemaVite-PRx 2 with Fish-Based DHA; Virt-Select PRENATAL/POSTNATAL; VirtPrex; Vp-ggr-B6; natelle COMPLETE

>  <SALTS>  (1) 
Calcium phosphate, dibasic; Calcium phosphate, tribasic

$$$$
