1238
     RDKit          2D

 30 33  0  0  0  0  0  0  0  0999 V2000
   12.4232   -0.7979    0.0000 Cl  0  0  0  0  0  0  0  0  0  0  0  0
   13.8554    0.0216    0.0000 Cl  0  0  0  0  0  0  0  0  0  0  0  0
    5.9914   -1.1855    0.0000 O   0  0  0  0  0  0  0  0  0  0  0  0
    1.6500   -1.1657    0.0000 O   0  0  0  0  0  0  0  0  0  0  0  0
    9.5653   -0.7868    0.0000 N   0  0  0  0  0  0  0  0  0  0  0  0
   10.9974    0.0327    0.0000 N   0  0  0  0  0  0  0  0  0  0  0  0
    3.0790   -1.1657    0.0000 N   0  0  0  0  0  0  0  0  0  0  0  0
   10.2782   -1.2021    0.0000 C   0  0  0  0  0  0  0  0  0  0  0  0
    9.5685    0.0382    0.0000 C   0  0  0  0  0  0  0  0  0  0  0  0
   10.9942   -0.7923    0.0000 C   0  0  0  0  0  0  0  0  0  0  0  0
   10.2846    0.4479    0.0000 C   0  0  0  0  0  0  0  0  0  0  0  0
    8.8493   -1.1966    0.0000 C   0  0  0  0  0  0  0  0  0  0  0  0
    8.1364   -0.7814    0.0000 C   0  0  0  0  0  0  0  0  0  0  0  0
   11.7135    0.4424    0.0000 C   0  0  0  0  0  0  0  0  0  0  0  0
    7.4203   -1.1911    0.0000 C   0  0  0  0  0  0  0  0  0  0  0  0
    6.7074   -0.7758    0.0000 C   0  0  0  0  0  0  0  0  0  0  0  0
   12.4264    0.0271    0.0000 C   0  0  0  0  0  0  0  0  0  0  0  0
   11.7167    1.2674    0.0000 C   0  0  0  0  0  0  0  0  0  0  0  0
    3.7935    0.0719    0.0000 C   0  0  0  0  0  0  0  0  0  0  0  0
    3.0790    0.4844    0.0000 C   0  0  0  0  0  0  0  0  0  0  0  0
    3.7935   -0.7532    0.0000 C   0  0  0  0  0  0  0  0  0  0  0  0
    5.2785   -0.7703    0.0000 C   0  0  0  0  0  0  0  0  0  0  0  0
   13.1425    0.4369    0.0000 C   0  0  0  0  0  0  0  0  0  0  0  0
   12.4327    1.6772    0.0000 C   0  0  0  0  0  0  0  0  0  0  0  0
    2.3645    0.0719    0.0000 C   0  0  0  0  0  0  0  0  0  0  0  0
    4.5309   -1.1943    0.0000 C   0  0  0  0  0  0  0  0  0  0  0  0
   13.1456    1.2619    0.0000 C   0  0  0  0  0  0  0  0  0  0  0  0
    4.5309    0.5130    0.0000 C   0  0  0  0  0  0  0  0  0  0  0  0
    5.2785    0.0890    0.0000 C   0  0  0  0  0  0  0  0  0  0  0  0
    2.3645   -0.7532    0.0000 C   0  0  0  0  0  0  0  0  0  0  0  0
  1 17  1  0
  2 23  1  0
  3 16  1  0
  3 22  1  0
  4 30  2  0
  5  8  1  0
  5  9  1  0
  5 12  1  0
  6 10  1  0
  6 11  1  0
  6 14  1  0
  7 21  1  0
  7 30  1  0
  8 10  1  0
  9 11  1  0
 12 13  1  0
 13 15  1  0
 14 17  2  0
 14 18  1  0
 15 16  1  0
 17 23  1  0
 18 24  2  0
 19 20  1  0
 19 21  2  0
 19 28  1  0
 20 25  1  0
 21 26  1  0
 22 26  2  0
 22 29  1  0
 23 27  2  0
 24 27  1  0
 25 30  1  0
 28 29  2  0
M  END
>  <DATABASE_ID>  (1) 
DB01238

>  <DATABASE_NAME>  (1) 
drugbank

>  <SMILES>  (1) 
ClC1=CC=CC(N2CCN(CCCCOC3=CC4=C(CCC(=O)N4)C=C3)CC2)=C1Cl

>  <INCHI_IDENTIFIER>  (1) 
InChI=1S/C23H27Cl2N3O2/c24-19-4-3-5-21(23(19)25)28-13-11-27(12-14-28)10-1-2-15-30-18-8-6-17-7-9-22(29)26-20(17)16-18/h3-6,8,16H,1-2,7,9-15H2,(H,26,29)

>  <INCHI_KEY>  (1) 
CEUORZQYGODEFX-UHFFFAOYSA-N

>  <FORMULA>  (1) 
C23H27Cl2N3O2

>  <MOLECULAR_WEIGHT>  (1) 
448.385

>  <EXACT_MASS>  (1) 
447.148032537

>  <JCHEM_ACCEPTOR_COUNT>  (1) 
4

>  <JCHEM_ATOM_COUNT>  (1) 
57

>  <JCHEM_AVERAGE_NEUTRAL_MICROSPECIES_CHARGE>  (1) 
0.7430438542638655

>  <JCHEM_AVERAGE_POLARIZABILITY>  (1) 
49.23378966053646

>  <JCHEM_BIOAVAILABILITY>  (1) 
1

>  <JCHEM_DONOR_COUNT>  (1) 
1

>  <JCHEM_FORMAL_CHARGE>  (1) 
0

>  <JCHEM_GHOSE_FILTER>  (1) 
1

>  <JCHEM_IUPAC>  (1) 
7-{4-[4-(2,3-dichlorophenyl)piperazin-1-yl]butoxy}-1,2,3,4-tetrahydroquinolin-2-one

>  <ALOGPS_LOGP>  (1) 
5.21

>  <JCHEM_LOGP>  (1) 
4.901243659333332

>  <ALOGPS_LOGS>  (1) 
-4.76

>  <JCHEM_MDDR_LIKE_RULE>  (1) 
1

>  <JCHEM_NEUTRAL_CHARGE>  (1) 
1

>  <JCHEM_NUMBER_OF_RINGS>  (1) 
4

>  <JCHEM_PHYSIOLOGICAL_CHARGE>  (1) 
1

>  <JCHEM_PKA_STRONGEST_ACIDIC>  (1) 
13.51210868997173

>  <JCHEM_PKA_STRONGEST_BASIC>  (1) 
7.4611557520287715

>  <JCHEM_POLAR_SURFACE_AREA>  (1) 
44.81

>  <JCHEM_REFRACTIVITY>  (1) 
124.33640000000001

>  <JCHEM_ROTATABLE_BOND_COUNT>  (1) 
7

>  <JCHEM_RULE_OF_FIVE>  (1) 
1

>  <ALOGPS_SOLUBILITY>  (1) 
7.77e-03 g/l

>  <JCHEM_TRADITIONAL_IUPAC>  (1) 
biotin

>  <JCHEM_VEBER_RULE>  (1) 
0

>  <DRUGBANK_ID>  (1) 
DB01238

>  <SECONDARY_ACCESSION_NUMBERS>  (1) 
APRD00638

>  <DRUG_GROUPS>  (1) 
approved; investigational

>  <GENERIC_NAME>  (1) 
Aripiprazole

>  <SYNONYMS>  (1) 
Aripiprazol; Aripiprazole; Aripiprazolum

>  <PRODUCTS>  (1) 
Abilify; Abilify Asimtufii; Abilify Maintena; Abilify MyCite; Ag-aripiprazole; Apo-aripiprazole; Apo-aripiprazole Depot; Aripiprazole; Aripiprazole Accord; Aripiprazole Mylan Pharma; Aripiprazole Sandoz; Aripiprazole Zentiva; Auro-aripiprazole; Jamp Aripiprazole; Mint-aripiprazole; Nb-aripiprazole; Nra-aripiprazole; Opipza; PMS-aripiprazole; Riva-aripiprazole; Sandoz Aripiprazole; Sandoz Aripiprazole Tablet; Solufy; Teva-aripiprazole

>  <INTERNATIONAL_BRANDS>  (1) 
Abilitat

$$$$
