
     RDKit          2D

 74 77  0  0  0  0  0  0  0  0999 V2000
   -6.7413   -3.5054    0.0000 N   0  0  0  0  0  0  0  0  0  0  0  0
   -6.0670   -3.1010    0.0000 C   0  0  0  0  0  0  0  0  0  0  0  0
   -5.3480   -3.5054    0.0000 C   0  0  0  0  0  0  0  0  0  0  0  0
   -4.6289   -3.1010    0.0000 N   0  0  0  0  0  0  0  0  0  0  0  0
   -3.9099   -3.5054    0.0000 C   0  0  0  0  0  0  0  0  0  0  0  0
   -3.1908   -3.1010    0.0000 C   0  0  0  0  0  0  0  0  0  0  0  0
   -2.4718   -3.5054    0.0000 N   0  0  0  0  0  0  0  0  0  0  0  0
   -1.7976   -3.1010    0.0000 C   0  0  0  0  0  0  0  0  0  0  0  0
   -1.0785   -3.5054    0.0000 O   0  0  0  0  0  0  0  0  0  0  0  0
   -6.0670   -2.2920    0.0000 O   0  0  0  0  0  0  0  0  0  0  0  0
   -3.9099   -4.3593    0.0000 O   0  0  0  0  0  0  0  0  0  0  0  0
   -3.1908   -2.2920    0.0000 C   0  0  0  0  0  0  0  0  0  0  0  0
   -3.9099   -1.8874    0.0000 C   0  0  0  0  0  0  0  0  0  0  0  0
   -3.9099   -1.0786    0.0000 C   0  0  0  0  0  0  0  0  0  0  0  0
   -4.6289   -0.6740    0.0000 N   0  0  0  0  0  0  0  0  0  0  0  0
   -1.7976   -2.2920    0.0000 C   0  0  0  0  0  0  0  0  0  0  0  0
   -2.4268   -1.7976    0.0000 C   0  0  0  0  0  0  0  0  0  0  0  0
   -1.1234   -1.7976    0.0000 N   0  0  0  0  0  0  0  0  0  0  0  0
   -2.2021   -1.0337    0.0000 C   0  0  0  0  0  0  0  0  0  0  0  0
   -1.3931   -1.0337    0.0000 C   0  0  0  0  0  0  0  0  0  0  0  0
   -0.4044   -2.2021    0.0000 C   0  0  0  0  0  0  0  0  0  0  0  0
    0.3146   -1.7976    0.0000 C   0  0  0  0  0  0  0  0  0  0  0  0
    1.0337   -2.2021    0.0000 N   0  0  0  0  0  0  0  0  0  0  0  0
    1.7078   -1.7976    0.0000 C   0  0  0  0  0  0  0  0  0  0  0  0
    2.4269   -2.2021    0.0000 C   0  0  0  0  0  0  0  0  0  0  0  0
    3.1460   -1.7976    0.0000 N   0  0  0  0  0  0  0  0  0  0  0  0
   -0.4044   -3.0560    0.0000 O   0  0  0  0  0  0  0  0  0  0  0  0
    0.3146   -0.9887    0.0000 C   0  0  0  0  0  0  0  0  0  0  0  0
   -0.4044   -0.5842    0.0000 S   0  0  0  0  0  0  0  0  0  0  0  0
   -0.4044    0.2246    0.0000 S   0  0  0  0  0  0  0  0  0  0  0  0
    1.7078   -0.9887    0.0000 O   0  0  0  0  0  0  0  0  0  0  0  0
    2.4269   -3.0560    0.0000 C   0  0  0  0  0  0  0  0  0  0  0  0
    3.1460   -3.4605    0.0000 C   0  0  0  0  0  0  0  0  0  0  0  0
    3.1460   -4.2694    0.0000 O   0  0  0  0  0  0  0  0  0  0  0  0
    3.8650   -3.0560    0.0000 N   0  0  0  0  0  0  0  0  0  0  0  0
    3.1460   -0.9887    0.0000 C   0  0  0  0  0  0  0  0  0  0  0  0
    3.8650   -0.5842    0.0000 C   0  0  0  0  0  0  0  0  0  0  0  0
    2.4269   -0.5842    0.0000 O   0  0  0  0  0  0  0  0  0  0  0  0
    4.5840   -0.9887    0.0000 C   0  0  0  0  0  0  0  0  0  0  0  0
    5.3032   -0.5842    0.0000 C   0  0  0  0  0  0  0  0  0  0  0  0
    6.0222   -0.9887    0.0000 C   0  0  0  0  0  0  0  0  0  0  0  0
    6.7413   -0.5842    0.0000 N   0  0  0  0  0  0  0  0  0  0  0  0
    6.0222   -1.8426    0.0000 O   0  0  0  0  0  0  0  0  0  0  0  0
    3.8650    0.2246    0.0000 N   0  0  0  0  0  0  0  0  0  0  0  0
    4.5840    1.4831    0.0000 C   0  0  0  0  0  0  0  0  0  0  0  0
    4.5840    0.6291    0.0000 C   0  0  0  0  0  0  0  0  0  0  0  0
    3.8650    1.8874    0.0000 C   0  0  0  0  0  0  0  0  0  0  0  0
    3.1460    1.4831    0.0000 C   0  0  0  0  0  0  0  0  0  0  0  0
    3.1460    0.6291    0.0000 C   0  0  0  0  0  0  0  0  0  0  0  0
    6.0222    1.4831    0.0000 C   0  0  0  0  0  0  0  0  0  0  0  0
    6.0222    0.6291    0.0000 C   0  0  0  0  0  0  0  0  0  0  0  0
    5.3032    1.8874    0.0000 C   0  0  0  0  0  0  0  0  0  0  0  0
    5.3032    0.2246    0.0000 C   0  0  0  0  0  0  0  0  0  0  0  0
    0.3146    1.4831    0.0000 N   0  0  0  0  0  0  0  0  0  0  0  0
   -0.4044    1.8874    0.0000 C   0  0  0  0  0  0  0  0  0  0  0  0
   -1.1234    1.4831    0.0000 C   0  0  0  0  0  0  0  0  0  0  0  0
   -1.1234    0.6291    0.0000 C   0  0  0  0  0  0  0  0  0  0  0  0
    1.7078    1.4831    0.0000 C   0  0  0  0  0  0  0  0  0  0  0  0
    1.7078    0.6291    0.0000 O   0  0  0  0  0  0  0  0  0  0  0  0
    1.0337    1.8874    0.0000 C   0  0  0  0  0  0  0  0  0  0  0  0
    2.4269    1.8874    0.0000 N   0  0  0  0  0  0  0  0  0  0  0  0
    2.4269    0.2246    0.0000 O   0  0  0  0  0  0  0  0  0  0  0  0
    1.0337    2.6964    0.0000 C   0  0  0  0  0  0  0  0  0  0  0  0
    2.4269    2.6964    0.0000 C   0  0  0  0  0  0  0  0  0  0  0  0
    1.7078    3.1009    0.0000 C   0  0  0  0  0  0  0  0  0  0  0  0
    3.1460    3.1009    0.0000 C   0  0  0  0  0  0  0  0  0  0  0  0
    3.1460    3.9548    0.0000 C   0  0  0  0  0  0  0  0  0  0  0  0
    1.7078    3.9548    0.0000 C   0  0  0  0  0  0  0  0  0  0  0  0
    2.4269    4.3593    0.0000 C   0  0  0  0  0  0  0  0  0  0  0  0
   -0.4044    2.6964    0.0000 O   0  0  0  0  0  0  0  0  0  0  0  0
    3.8650    4.3593    0.0000 O   0  0  0  0  0  0  0  0  0  0  0  0
   -5.3480   -1.0786    0.0000 C   0  0  0  0  0  0  0  0  0  0  0  0
   -5.3480   -1.8874    0.0000 N   0  0  0  0  0  0  0  0  0  0  0  0
   -6.0670   -0.6740    0.0000 N   0  0  0  0  0  0  0  0  0  0  0  0
  2  1  1  0
  3  2  1  0
 10  2  2  0
  4  3  1  0
  5  4  1  0
  6  5  1  0
 11  5  2  0
  7  6  1  0
  6 12  1  1
  8  7  1  0
  9  8  2  0
 16  8  1  6
 13 12  1  0
 14 13  1  0
 15 14  1  0
 72 15  1  0
 17 16  1  0
 18 16  1  0
 19 17  1  0
 20 18  1  0
 21 18  1  0
 20 19  1  0
 22 21  1  6
 27 21  2  0
 23 22  1  0
 28 22  1  0
 24 23  1  0
 25 24  1  0
 31 24  2  0
 26 25  1  0
 25 32  1  1
 36 26  1  0
 29 28  1  0
 30 29  1  0
 57 30  1  0
 33 32  1  0
 34 33  2  0
 35 33  1  0
 37 36  1  0
 38 36  2  0
 37 39  1  1
 44 37  1  0
 40 39  1  0
 41 40  1  0
 42 41  1  0
 43 41  2  0
 49 44  1  0
 47 45  1  0
 52 45  1  0
 46 45  2  0
 53 46  1  0
 48 47  1  1
 61 48  1  0
 49 48  1  0
 62 49  2  0
 51 50  1  0
 52 50  2  0
 53 51  2  0
 55 54  1  0
 60 54  1  0
 56 55  1  0
 70 55  2  0
 57 56  1  0
 59 58  2  0
 60 58  1  0
 61 58  1  0
 60 63  1  1
 65 63  1  0
 66 64  2  0
 65 64  1  0
 68 65  2  0
 67 66  1  0
 69 67  2  0
 71 67  1  0
 69 68  1  0
 73 72  2  0
 74 72  1  0
M  END
>  <DATABASE_ID>  (1) 
DB00035

>  <DATABASE_NAME>  (1) 
drugbank

>  <SMILES>  (1) 
NC(=O)CC[C@@H]1NC(=O)[C@H](CC2=CC=CC=C2)NC(=O)[C@H](CC2=CC=C(O)C=C2)NC(=O)CCSSC[C@H](NC(=O)[C@H](CC(N)=O)NC1=O)C(=O)N1CCC[C@H]1C(=O)N[C@H](CCCNC(N)=N)C(=O)NCC(N)=O

>  <INCHI_IDENTIFIER>  (1) 
InChI=1S/C46H64N14O12S2/c47-35(62)15-14-29-40(67)58-32(22-36(48)63)43(70)59-33(45(72)60-18-5-9-34(60)44(71)56-28(8-4-17-52-46(50)51)39(66)53-23-37(49)64)24-74-73-19-16-38(65)54-30(21-26-10-12-27(61)13-11-26)41(68)57-31(42(69)55-29)20-25-6-2-1-3-7-25/h1-3,6-7,10-13,28-34,61H,4-5,8-9,14-24H2,(H2,47,62)(H2,48,63)(H2,49,64)(H,53,66)(H,54,65)(H,55,69)(H,56,71)(H,57,68)(H,58,67)(H,59,70)(H4,50,51,52)/t28-,29+,30+,31+,32+,33+,34+/m1/s1

>  <INCHI_KEY>  (1) 
NFLWUMRGJYTJIN-PNIOQBSNSA-N

>  <FORMULA>  (1) 
C46H64N14O12S2

>  <MOLECULAR_WEIGHT>  (1) 
1069.22

>  <EXACT_MASS>  (1) 
1068.426955905

>  <JCHEM_ACCEPTOR_COUNT>  (1) 
15

>  <JCHEM_ATOM_COUNT>  (1) 
138

>  <JCHEM_AVERAGE_POLARIZABILITY>  (1) 
104.7804219633963

>  <JCHEM_BIOAVAILABILITY>  (1) 
0

>  <JCHEM_DONOR_COUNT>  (1) 
14

>  <JCHEM_FORMAL_CHARGE>  (1) 
0

>  <JCHEM_GHOSE_FILTER>  (1) 
0

>  <JCHEM_IUPAC>  (1) 
(2R)-2-{[(2S)-1-[(4R,7S,10S,13S,16S)-13-benzyl-10-(2-carbamoylethyl)-7-(carbamoylmethyl)-16-[(4-hydroxyphenyl)methyl]-6,9,12,15,18-pentaoxo-1,2-dithia-5,8,11,14,17-pentaazacycloicosane-4-carbonyl]pyrrolidin-2-yl]formamido}-5-carbamimidamido-N-(carbamoylmethyl)pentanamide

>  <ALOGPS_LOGP>  (1) 
-1.04

>  <JCHEM_LOGP>  (1) 
-6.128255121522684

>  <ALOGPS_LOGS>  (1) 
-3.99

>  <JCHEM_MDDR_LIKE_RULE>  (1) 
1

>  <JCHEM_NUMBER_OF_RINGS>  (1) 
4

>  <JCHEM_PHYSIOLOGICAL_CHARGE>  (1) 
1

>  <JCHEM_PKA>  (1) 
11.344258946590854

>  <JCHEM_PKA_STRONGEST_ACIDIC>  (1) 
9.496980961426173

>  <JCHEM_PKA_STRONGEST_BASIC>  (1) 
11.771940185101531

>  <JCHEM_POLAR_SURFACE_AREA>  (1) 
435.40999999999985

>  <JCHEM_REFRACTIVITY>  (1) 
279.7799

>  <JCHEM_ROTATABLE_BOND_COUNT>  (1) 
19

>  <JCHEM_RULE_OF_FIVE>  (1) 
0

>  <ALOGPS_SOLUBILITY>  (1) 
1.10e-01 g/l

>  <JCHEM_TRADITIONAL_IUPAC>  (1) 
tigecycline

>  <JCHEM_VEBER_RULE>  (1) 
0

>  <DRUGBANK_ID>  (1) 
DB00035

>  <SECONDARY_ACCESSION_NUMBERS>  (1) 
BTD00112; BTD00061; BIOD00112; BIOD00061

>  <DRUG_GROUPS>  (1) 
approved; investigational

>  <GENERIC_NAME>  (1) 
Desmopressin

>  <SYNONYMS>  (1) 
1 deamino 8 D argininevasopressin; 1-(3-mercaptopropionic acid)-8-D-arginine-vasopressin; 1-deamino-8-D-arginine vasopressin; 1-desamino-8-D-arginine vasopressin; dDAVP; Desmopresina; Desmopressin; Desmopressine; Desmopressinum

>  <PRODUCTS>  (1) 
Apo-desmopressin; Auro-desmopressin; Bipazen; DDAVP Rhinal Tube; Ddavp; Ddavp Inj 4mcg/ml; Ddavp Melt; Ddavp Rhinyle; Ddavp Spray; Ddavp Tablets 0.1mg; Ddavp Tablets 0.2mg; Desmoda; Desmopressin; Desmopressin Acetate; Desmopressin Spray; Desmopressin Tablets; Desmopressin acetate; Minirin; Nocdurna; Noctiva; Nu-desmopressin Spray; Octostim Liq Inj. 15mcg/ml; Octostim Spray; PMS-desmopressin; Stimate; Teva-desmopressin

>  <INTERNATIONAL_BRANDS>  (1) 
Adiuretin; DesmoMelt

>  <SALTS>  (1) 
Desmopressin acetate; Desmopressin acetate anhydrous

$$$$
