
     RDKit          2D

  0  0  0  0  0  0  0  0  0  0999 V3000
M  V30 BEGIN CTAB
M  V30 COUNTS 19 20 0 0 0
M  V30 BEGIN ATOM
M  V30 1 O 0.659200 0.377100 0.000000 0
M  V30 2 O -0.769600 0.377100 0.000000 0
M  V30 3 C -0.769600 -0.447800 0.000000 0
M  V30 4 O -1.484200 -0.860300 0.000000 0
M  V30 5 C 0.659200 -0.447800 0.000000 0
M  V30 6 O 1.373700 -0.860300 0.000000 0
M  V30 7 C -0.055200 -0.860300 0.000000 0
M  V30 8 C 0.528100 -1.443700 0.000000 0
M  V30 9 C -0.638500 -1.443700 0.000000 0
M  V30 10 C -0.055200 -2.027100 0.000000 0
M  V30 11 H 0.659200 2.027100 0.000000 0
M  V30 12 H 1.484200 1.202100 0.000000 0
M  V30 13 Pt -0.055200 0.789600 0.000000 0 VAL=4
M  V30 14 H -1.484200 0.789600 0.000000 0
M  V30 15 H -0.769600 2.027100 0.000000 0
M  V30 16 N -0.769600 1.202100 0.000000 0
M  V30 17 H -1.182200 1.916600 0.000000 0
M  V30 18 N 0.659200 1.202100 0.000000 0
M  V30 19 H 1.373700 0.789600 0.000000 0
M  V30 END ATOM
M  V30 BEGIN BOND
M  V30 1 1 13 1
M  V30 2 1 13 2
M  V30 3 1 1 5
M  V30 4 1 5 7
M  V30 5 1 7 3
M  V30 6 1 3 2
M  V30 7 2 3 4
M  V30 8 2 5 6
M  V30 9 1 7 8
M  V30 10 1 7 9
M  V30 11 1 8 10
M  V30 12 1 9 10
M  V30 13 9 18 13
M  V30 14 1 18 11
M  V30 15 1 18 12
M  V30 16 9 16 13
M  V30 17 1 16 14
M  V30 18 1 16 15
M  V30 19 1 16 17
M  V30 20 1 18 19
M  V30 END BOND
M  V30 END CTAB
M  END
>  <DATABASE_ID>  (1) 
DB00958

>  <DATABASE_NAME>  (1) 
drugbank

>  <SMILES>  (1) 
[H][N]([H])([H])[Pt]1(OC(=O)C2(CCC2)C(=O)O1)[N]([H])([H])[H]

>  <INCHI_IDENTIFIER>  (1) 
InChI=1S/C6H8O4.2H3N.Pt/c7-4(8)6(5(9)10)2-1-3-6;;;/h1-3H2,(H,7,8)(H,9,10);2*1H3;/q;;;+2/p-2

>  <INCHI_KEY>  (1) 
OLESAACUTLOWQZ-UHFFFAOYSA-L

>  <FORMULA>  (1) 
C6H12N2O4Pt

>  <MOLECULAR_WEIGHT>  (1) 
371.254

>  <EXACT_MASS>  (1) 
371.044481331

>  <JCHEM_ACCEPTOR_COUNT>  (1) 
0

>  <JCHEM_ATOM_COUNT>  (1) 
25

>  <JCHEM_AVERAGE_POLARIZABILITY>  (1) 
18.268789884862585

>  <JCHEM_BIOAVAILABILITY>  (1) 
1

>  <JCHEM_DONOR_COUNT>  (1) 
0

>  <JCHEM_FORMAL_CHARGE>  (1) 
0

>  <JCHEM_GHOSE_FILTER>  (1) 
0

>  <JCHEM_IUPAC>  (1) 
7,7-diamino-6,8-dioxa-7-platinaspiro[3.5]nonane-5,9-dione

>  <ALOGPS_LOGP>  (1) 
0.14

>  <ALOGPS_LOGS>  (1) 
-0.67

>  <JCHEM_MDDR_LIKE_RULE>  (1) 
0

>  <JCHEM_NUMBER_OF_RINGS>  (1) 
2

>  <JCHEM_PHYSIOLOGICAL_CHARGE>  (1) 
0

>  <JCHEM_POLAR_SURFACE_AREA>  (1) 
107.88000000000001

>  <JCHEM_REFRACTIVITY>  (1) 
60.036699999999996

>  <JCHEM_ROTATABLE_BOND_COUNT>  (1) 
0

>  <JCHEM_RULE_OF_FIVE>  (1) 
0

>  <ALOGPS_SOLUBILITY>  (1) 
7.98e+01 g/l

>  <JCHEM_TRADITIONAL_IUPAC>  (1) 
carboplatin

>  <JCHEM_VEBER_RULE>  (1) 
0

>  <DRUGBANK_ID>  (1) 
DB00958

>  <SECONDARY_ACCESSION_NUMBERS>  (1) 
APRD00466

>  <DRUG_GROUPS>  (1) 
approved; investigational

>  <GENERIC_NAME>  (1) 
Carboplatin

>  <SYNONYMS>  (1) 
Carboplatin; Carboplatine; Carboplatino; Carboplatinum; CBDCA; Cis-(1,1-cyclobutanedicarboxylato)diammineplatinum(II); Cis-diammine(1,1-cyclobutanedicarboxylato)platinum; Cis-diammine(1,1-cyclobutanedicarboxylato)platinum(II); Platinum, diammine [1,1-cyclobutane-dicarboxylato(2-)-0,0']-,(SP-4-2)

>  <PRODUCTS>  (1) 
Carboplatin; Carboplatin Injection; Carboplatin Injection BP; Carboplatin Injection Liq 10mg/ml; Carboplatin Injection, BP; Kyxata; Paraplatin; Paraplatin Inj 150mg/vial; Paraplatin-AQ Inj 10mg/ml

>  <INTERNATIONAL_BRANDS>  (1) 
Paraplatin AQ

$$$$
