
     RDKit          2D

 33 36  0  0  1  0  0  0  0  0999 V2000
    6.3035    3.8680    0.0000 C   0  0  0  0  0  0  0  0  0  0  0  0
    6.6390    3.1143    0.0000 O   0  0  0  0  0  0  0  0  0  0  0  0
    6.1541    2.4469    0.0000 C   0  0  0  0  0  0  0  0  0  0  0  0
    6.4897    1.6932    0.0000 C   0  0  0  0  0  0  0  0  0  0  0  0
    6.0047    1.0257    0.0000 C   0  0  0  0  0  0  0  0  0  0  0  0
    6.3403    0.2721    0.0000 Cl  0  0  0  0  0  0  0  0  0  0  0  0
    5.1842    1.1120    0.0000 C   0  0  0  0  0  0  0  0  0  0  0  0
    4.8487    1.8657    0.0000 C   0  0  0  0  0  0  0  0  0  0  0  0
    5.3336    2.5331    0.0000 C   0  0  0  0  0  0  0  0  0  0  0  0
    4.9981    3.2868    0.0000 C   0  0  0  0  0  0  0  0  0  0  0  0
    4.6993    0.4445    0.0000 C   0  0  0  0  0  0  0  0  0  0  0  0
    4.9543   -0.3401    0.0000 N   0  0  0  0  0  0  0  0  0  0  0  0
    4.2868   -0.8250    0.0000 C   0  0  0  0  0  0  0  0  0  0  0  0
    3.6194   -0.3401    0.0000 S   0  0  0  0  0  0  0  0  0  0  0  0
    3.8743    0.4445    0.0000 C   0  0  0  0  0  0  0  0  0  0  0  0
    3.3894    1.1120    0.0000 C   0  0  0  0  0  0  0  0  0  0  0  0
    4.2868   -1.6500    0.0000 N   0  0  0  0  0  0  0  0  0  0  0  0
    3.5724   -2.0625    0.0000 C   0  0  0  0  0  0  0  0  0  0  0  0
    2.8579   -1.6500    0.0000 C   0  0  0  0  0  0  0  0  0  0  0  0
    2.1434   -1.2375    0.0000 C   0  0  0  0  0  0  0  0  0  0  0  0
    5.0013   -2.0625    0.0000 C   0  0  0  0  0  0  0  0  0  0  0  0
    5.7158   -1.6500    0.0000 C   0  0  0  0  0  0  0  0  0  0  0  0
    6.4302   -2.0625    0.0000 C   0  0  0  0  0  0  0  0  0  0  0  0
    7.2552   -2.0625    0.0000 C   0  0  0  0  0  0  0  0  0  0  0  0
    6.8427   -2.7770    0.0000 C   0  0  0  0  0  0  0  0  0  0  0  0
    5.0013   -2.8875    0.0000 C   0  0  0  0  0  0  0  0  0  0  0  0
    5.7158   -3.3000    0.0000 C   0  0  0  0  0  0  0  0  0  0  0  0
    5.7158   -4.1250    0.0000 C   0  0  0  0  0  0  0  0  0  0  0  0
    5.0013   -4.5375    0.0000 C   0  0  0  0  0  0  0  0  0  0  0  0
    5.0013   -5.3625    0.0000 C   0  0  0  0  0  0  0  0  0  0  0  0
    4.2868   -4.1250    0.0000 C   0  0  0  0  0  0  0  0  0  0  0  0
    3.5724   -4.5375    0.0000 F   0  0  0  0  0  0  0  0  0  0  0  0
    4.2868   -3.3000    0.0000 C   0  0  0  0  0  0  0  0  0  0  0  0
  1  2  1  0
  2  3  1  0
  3  4  2  0
  4  5  1  0
  5  6  1  0
  5  7  2  0
  7  8  1  0
  8  9  2  0
  3  9  1  0
  9 10  1  0
  7 11  1  0
 11 12  1  0
 12 13  2  0
 13 14  1  0
 14 15  1  0
 11 15  2  0
 15 16  1  0
 13 17  1  0
 17 18  1  0
 18 19  1  0
 19 20  3  0
 21 17  1  0
 21 22  1  1
 22 23  1  0
 23 24  1  0
 24 25  1  0
 23 25  1  0
 21 26  1  0
 26 27  2  0
 27 28  1  0
 28 29  2  0
 29 30  1  0
 29 31  1  0
 31 32  1  0
 31 33  2  0
 26 33  1  0
M  END
>  <DATABASE_ID>  (1) 
DB18518

>  <DATABASE_NAME>  (1) 
drugbank

>  <SMILES>  (1) 
COC1=CC(Cl)=C(C=C1C)C1=C(C)SC(=N1)N(CC#C)[C@@H](CC1CC1)C1=CC=C(C)C(F)=C1

>  <INCHI_IDENTIFIER>  (1) 
InChI=1S/C27H28ClFN2OS/c1-6-11-31(24(13-19-8-9-19)20-10-7-16(2)23(29)14-20)27-30-26(18(4)33-27)21-12-17(3)25(32-5)15-22(21)28/h1,7,10,12,14-15,19,24H,8-9,11,13H2,2-5H3/t24-/m0/s1

>  <INCHI_KEY>  (1) 
IEAKXXNRGSLYTQ-DEOSSOPVSA-N

>  <FORMULA>  (1) 
C27H28ClFN2OS

>  <MOLECULAR_WEIGHT>  (1) 
483.04

>  <EXACT_MASS>  (1) 
482.1594906

>  <JCHEM_ACCEPTOR_COUNT>  (1) 
3

>  <JCHEM_ATOM_COUNT>  (1) 
61

>  <JCHEM_AVERAGE_NEUTRAL_MICROSPECIES_CHARGE>  (1) 
1.0000068407923133

>  <JCHEM_AVERAGE_POLARIZABILITY>  (1) 
52.38970260652924

>  <JCHEM_BIOAVAILABILITY>  (1) 
1

>  <JCHEM_DONOR_COUNT>  (1) 
0

>  <JCHEM_FORMAL_CHARGE>  (1) 
0

>  <JCHEM_GHOSE_FILTER>  (1) 
0

>  <JCHEM_IUPAC>  (1) 
4-(2-chloro-4-methoxy-5-methylphenyl)-N-[(1S)-2-cyclopropyl-1-(3-fluoro-4-methylphenyl)ethyl]-5-methyl-N-(prop-2-yn-1-yl)-1,3-thiazol-2-amine

>  <JCHEM_LOGP>  (1) 
8.878702524333335

>  <JCHEM_MDDR_LIKE_RULE>  (1) 
1

>  <JCHEM_NEUTRAL_CHARGE>  (1) 
0

>  <JCHEM_NUMBER_OF_RINGS>  (1) 
4

>  <JCHEM_PHYSIOLOGICAL_CHARGE>  (1) 
0

>  <JCHEM_PKA_STRONGEST_BASIC>  (1) 
5.1236411602468035

>  <JCHEM_POLAR_SURFACE_AREA>  (1) 
25.36

>  <JCHEM_REFRACTIVITY>  (1) 
135.03859999999995

>  <JCHEM_ROTATABLE_BOND_COUNT>  (1) 
8

>  <JCHEM_RULE_OF_FIVE>  (1) 
0

>  <JCHEM_TRADITIONAL_IUPAC>  (1) 
C27H28ClFN2OS

>  <JCHEM_VEBER_RULE>  (1) 
1

>  <DRUGBANK_ID>  (1) 
DB18518

>  <DRUG_GROUPS>  (1) 
approved; investigational

>  <GENERIC_NAME>  (1) 
Crinecerfont

>  <SYNONYMS>  (1) 
Crinecerfont

>  <PRODUCTS>  (1) 
Crenessity

$$$$
