
     RDKit          2D

  9  7  0  0  0  0  0  0  0  0999 V2000
    0.0000    0.2062    0.0000 C   0  0  0  0  0  0  0  0  0  0  0  0
   -0.7145   -0.2062    0.0000 C   0  0  0  0  0  0  0  0  0  0  0  0
    0.7145   -0.2062    0.0000 C   0  0  0  0  0  0  0  0  0  0  0  0
   -1.4290    0.2062    0.0000 C   0  0  0  0  0  0  0  0  0  0  0  0
    0.7145   -1.0313    0.0000 O   0  0  0  0  0  0  0  0  0  0  0  0
    1.4290    0.2062    0.0000 O   0  0  0  0  0  0  0  0  0  0  0  0
   -2.1436   -0.2062    0.0000 O   0  0  0  0  0  0  0  0  0  0  0  0
   -1.4290    1.0313    0.0000 O   0  0  0  0  0  0  0  0  0  0  0  0
    2.1436    0.6188    0.0000 Fe  0  0  0  0  0 15  0  0  0  0  0  0
  2  1  1  0
  3  1  1  0
  4  2  1  0
  5  3  2  0
  6  3  1  0
  7  4  2  0
  8  4  1  0
M  CHG  3   6  -1   8  -1   9   2
M  END
>  <DATABASE_ID>  (1) 
DB14489

>  <DATABASE_NAME>  (1) 
drugbank

>  <SMILES>  (1) 
[Fe++].[O-]C(=O)CCC([O-])=O

>  <INCHI_IDENTIFIER>  (1) 
InChI=1S/C4H6O4.Fe/c5-3(6)1-2-4(7)8;/h1-2H2,(H,5,6)(H,7,8);/q;+2/p-2

>  <INCHI_KEY>  (1) 
MDXRFOWKIZPNTA-UHFFFAOYSA-L

>  <FORMULA>  (1) 
C4H4FeO4

>  <MOLECULAR_WEIGHT>  (1) 
171.917

>  <EXACT_MASS>  (1) 
171.945895

>  <JCHEM_ACCEPTOR_COUNT>  (1) 
4

>  <JCHEM_ATOM_COUNT>  (1) 
13

>  <JCHEM_AVERAGE_POLARIZABILITY>  (1) 
9.327695991588044

>  <JCHEM_BIOAVAILABILITY>  (1) 
1

>  <JCHEM_DONOR_COUNT>  (1) 
0

>  <JCHEM_FORMAL_CHARGE>  (1) 
0

>  <JCHEM_GHOSE_FILTER>  (1) 
0

>  <JCHEM_IUPAC>  (1) 
lambda2-iron(2+) butanedioate

>  <ALOGPS_LOGP>  (1) 
0.53

>  <JCHEM_LOGP>  (1) 
-0.3984829673333332

>  <ALOGPS_LOGS>  (1) 
-0.85

>  <JCHEM_MDDR_LIKE_RULE>  (1) 
0

>  <JCHEM_NUMBER_OF_RINGS>  (1) 
0

>  <JCHEM_PHYSIOLOGICAL_CHARGE>  (1) 
-2

>  <JCHEM_PKA>  (1) 
5.6869121792916

>  <JCHEM_PKA_STRONGEST_ACIDIC>  (1) 
3.5541665109763474

>  <JCHEM_POLAR_SURFACE_AREA>  (1) 
80.25999999999999

>  <JCHEM_REFRACTIVITY>  (1) 
45.211200000000005

>  <JCHEM_ROTATABLE_BOND_COUNT>  (1) 
3

>  <JCHEM_RULE_OF_FIVE>  (1) 
1

>  <ALOGPS_SOLUBILITY>  (1) 
3.18e+01 g/l

>  <JCHEM_TRADITIONAL_IUPAC>  (1) 
lambda2-iron(2+) succinate

>  <JCHEM_VEBER_RULE>  (1) 
0

>  <DRUGBANK_ID>  (1) 
DB14489

>  <SECONDARY_ACCESSION_NUMBERS>  (1) 
DBSALT000083

>  <DRUG_GROUPS>  (1) 
approved; investigational

>  <GENERIC_NAME>  (1) 
Ferrous succinate

>  <SYNONYMS>  (1) 
Ferrous succinate; Iron succinate

$$$$
