1170
     RDKit          2D

 14 14  0  0  0  0  0  0  0  0999 V2000
    3.1524    1.0049    0.0000 N   0  0  0  0  0  0  0  0  0  0  0  0
    3.2816   -1.1741    0.0000 N   0  0  0  0  0  0  0  0  0  0  0  0
    3.0951   -2.5908    0.0000 N   0  0  0  0  0  0  0  0  0  0  0  0
    1.9614   -1.7209    0.0000 N   0  0  0  0  0  0  0  0  0  0  0  0
    2.3273    1.0049    0.0000 C   0  0  0  0  0  0  0  0  0  0  0  0
    3.7357    1.5882    0.0000 C   0  0  0  0  0  0  0  0  0  0  0  0
    1.7440    1.5882    0.0000 C   0  0  0  0  0  0  0  0  0  0  0  0
    3.7357    2.4132    0.0000 C   0  0  0  0  0  0  0  0  0  0  0  0
    1.7440    2.4132    0.0000 C   0  0  0  0  0  0  0  0  0  0  0  0
    3.1524    2.9966    0.0000 C   0  0  0  0  0  0  0  0  0  0  0  0
    2.3273    2.9966    0.0000 C   0  0  0  0  0  0  0  0  0  0  0  0
    3.4681    0.2426    0.0000 C   0  0  0  0  0  0  0  0  0  0  0  0
    2.9659   -0.4118    0.0000 C   0  0  0  0  0  0  0  0  0  0  0  0
    2.7794   -1.8286    0.0000 C   0  0  0  0  0  0  0  0  0  0  0  0
  1  5  1  0
  1  6  1  0
  1 12  1  0
  2 13  1  0
  2 14  2  0
  3 14  1  0
  4 14  1  0
  5  7  1  0
  6  8  1  0
  7  9  1  0
  8 10  1  0
  9 11  1  0
 10 11  1  0
 12 13  1  0
M  END
>  <DATABASE_ID>  (1) 
DB01170

>  <DATABASE_NAME>  (1) 
drugbank

>  <SMILES>  (1) 
NC(N)=NCCN1CCCCCCC1

>  <INCHI_IDENTIFIER>  (1) 
InChI=1S/C10H22N4/c11-10(12)13-6-9-14-7-4-2-1-3-5-8-14/h1-9H2,(H4,11,12,13)

>  <INCHI_KEY>  (1) 
ACGDKVXYNVEAGU-UHFFFAOYSA-N

>  <FORMULA>  (1) 
C10H22N4

>  <MOLECULAR_WEIGHT>  (1) 
198.3085

>  <EXACT_MASS>  (1) 
198.184446724

>  <JCHEM_ACCEPTOR_COUNT>  (1) 
4

>  <JCHEM_ATOM_COUNT>  (1) 
36

>  <JCHEM_AVERAGE_NEUTRAL_MICROSPECIES_CHARGE>  (1) 
1.989347647969594

>  <JCHEM_AVERAGE_POLARIZABILITY>  (1) 
23.673218637722044

>  <JCHEM_BIOAVAILABILITY>  (1) 
1

>  <JCHEM_DONOR_COUNT>  (1) 
2

>  <JCHEM_FORMAL_CHARGE>  (1) 
0

>  <JCHEM_GHOSE_FILTER>  (1) 
1

>  <JCHEM_IUPAC>  (1) 
N''-[2-(azocan-1-yl)ethyl]guanidine

>  <ALOGPS_LOGP>  (1) 
0.89

>  <JCHEM_LOGP>  (1) 
0.7449850346666667

>  <ALOGPS_LOGS>  (1) 
-1.95

>  <JCHEM_MDDR_LIKE_RULE>  (1) 
0

>  <JCHEM_NEUTRAL_CHARGE>  (1) 
2

>  <JCHEM_NUMBER_OF_RINGS>  (1) 
1

>  <JCHEM_PHYSIOLOGICAL_CHARGE>  (1) 
2

>  <JCHEM_PKA_STRONGEST_BASIC>  (1) 
11.769574089203532

>  <JCHEM_POLAR_SURFACE_AREA>  (1) 
67.64

>  <JCHEM_REFRACTIVITY>  (1) 
59.7037

>  <JCHEM_ROTATABLE_BOND_COUNT>  (1) 
3

>  <JCHEM_RULE_OF_FIVE>  (1) 
1

>  <ALOGPS_SOLUBILITY>  (1) 
2.25e+00 g/l

>  <JCHEM_TRADITIONAL_IUPAC>  (1) 
biotin

>  <JCHEM_VEBER_RULE>  (1) 
0

>  <DRUGBANK_ID>  (1) 
DB01170

>  <SECONDARY_ACCESSION_NUMBERS>  (1) 
APRD01007

>  <DRUG_GROUPS>  (1) 
approved; withdrawn

>  <GENERIC_NAME>  (1) 
Guanethidine

>  <SYNONYMS>  (1) 
(2-(hexahydro-1(2h)-azocinyl)ethyl)guanidine; (2-(Octahydro-1-azocinyl)ethyl)guanidine; 2-(1-N,N-Heptamethyleneimino)ethylguanidine; 2-(1'-Azacyclooctyl)ethylguanidine; Azocine, 1-(2-guanidinoethyl)octahydro-; Guanethidine; guanéthidine; guanethidinum; guanetidina; Guanidine, (2-(hexahydro-1(2H)-azocinyl)ethyl)-; Heptamethylenimine, 1-(2-guanidinoethyl)-; N-(2-Perhydroazocin-1-ylethyl)guanidine

>  <PRODUCTS>  (1) 
Apo Guanethidine Sulfate Tab 10mg; Apo Guanethidine Sulfate Tab 25mg; Guanethidine 10 Tab 10mg; Ismelin; Ismelin 25mg

>  <INTERNATIONAL_BRANDS>  (1) 
Ismedine

>  <SALTS>  (1) 
Guanethidine monosulfate; Guanethidine sulfate

$$$$
