
     RDKit          2D

 23 23  0  0  0  0  0  0  0  0999 V2000
   -1.7861    0.8250    0.0000 C   0  0  0  0  0  0  0  0  0  0  0  0
   -2.5006    0.4125    0.0000 C   0  0  0  0  0  0  0  0  0  0  0  0
   -2.5006   -0.4125    0.0000 C   0  0  0  0  0  0  0  0  0  0  0  0
   -1.7861   -0.8250    0.0000 C   0  0  0  0  0  0  0  0  0  0  0  0
   -1.0717   -0.4125    0.0000 C   0  0  0  0  0  0  0  0  0  0  0  0
   -1.0717    0.4125    0.0000 C   0  0  0  0  0  0  0  0  0  0  0  0
   -1.7861    1.6500    0.0000 O   0  0  0  0  0  0  0  0  0  0  0  0
   -1.7861   -1.6500    0.0000 C   0  0  0  0  0  0  0  0  0  0  0  0
   -1.0717    2.0625    0.0000 C   0  0  0  0  0  0  0  0  0  0  0  0
   -0.3572    1.6500    0.0000 C   0  0  0  0  0  0  0  0  0  0  0  0
    0.3572    2.0625    0.0000 C   0  0  0  0  0  0  0  0  0  0  0  0
    1.0717    1.6500    0.0000 N   0  0  0  0  0  0  0  0  0  0  0  0
    1.7861    2.0625    0.0000 C   0  0  0  0  0  0  0  0  0  0  0  0
    2.5006    1.6500    0.0000 C   0  0  0  0  0  0  0  0  0  0  0  0
    1.7861    2.8875    0.0000 C   0  0  0  0  0  0  0  0  0  0  0  0
   -1.0717   -2.0625    0.0000 O   0  0  0  0  0  0  0  0  0  0  0  0
   -0.3572   -1.6500    0.0000 C   0  0  0  0  0  0  0  0  0  0  0  0
    0.3572   -2.0625    0.0000 C   0  0  0  0  0  0  0  0  0  0  0  0
    1.0717   -1.6500    0.0000 O   0  0  0  0  0  0  0  0  0  0  0  0
    1.7861   -2.0625    0.0000 C   0  0  0  0  0  0  0  0  0  0  0  0
    2.5006   -1.6500    0.0000 C   0  0  0  0  0  0  0  0  0  0  0  0
    1.7861   -2.8875    0.0000 C   0  0  0  0  0  0  0  0  0  0  0  0
   -0.3572    0.8250    0.0000 O   0  0  0  0  0  0  0  0  0  0  0  0
  1  2  2  0
  1  6  1  0
  2  3  1  0
  3  4  2  0
  4  5  1  0
  5  6  2  0
  1  7  1  0
  4  8  1  0
  7  9  1  0
  9 10  1  0
 10 11  1  0
 11 12  1  0
 12 13  1  0
 13 14  1  0
 13 15  1  0
  8 16  1  0
 16 17  1  0
 17 18  1  0
 18 19  1  0
 19 20  1  0
 20 21  1  0
 20 22  1  0
 10 23  1  0
M  END
>  <DATABASE_ID>  (1) 
DB00612

>  <DATABASE_NAME>  (1) 
drugbank

>  <SMILES>  (1) 
CC(C)NCC(O)COC1=CC=C(COCCOC(C)C)C=C1

>  <INCHI_IDENTIFIER>  (1) 
InChI=1S/C18H31NO4/c1-14(2)19-11-17(20)13-23-18-7-5-16(6-8-18)12-21-9-10-22-15(3)4/h5-8,14-15,17,19-20H,9-13H2,1-4H3

>  <INCHI_KEY>  (1) 
VHYCDWMUTMEGQY-UHFFFAOYSA-N

>  <FORMULA>  (1) 
C18H31NO4

>  <MOLECULAR_WEIGHT>  (1) 
325.443

>  <EXACT_MASS>  (1) 
325.225308485

>  <JCHEM_ACCEPTOR_COUNT>  (1) 
5

>  <JCHEM_ATOM_COUNT>  (1) 
54

>  <JCHEM_AVERAGE_POLARIZABILITY>  (1) 
38.49740221234493

>  <JCHEM_BIOAVAILABILITY>  (1) 
1

>  <JCHEM_DONOR_COUNT>  (1) 
2

>  <JCHEM_FORMAL_CHARGE>  (1) 
0

>  <JCHEM_GHOSE_FILTER>  (1) 
1

>  <JCHEM_IUPAC>  (1) 
1-[(propan-2-yl)amino]-3-(4-{[2-(propan-2-yloxy)ethoxy]methyl}phenoxy)propan-2-ol

>  <ALOGPS_LOGP>  (1) 
2.30

>  <JCHEM_LOGP>  (1) 
2.1964033799999996

>  <ALOGPS_LOGS>  (1) 
-3.66

>  <JCHEM_MDDR_LIKE_RULE>  (1) 
0

>  <JCHEM_NUMBER_OF_RINGS>  (1) 
1

>  <JCHEM_PHYSIOLOGICAL_CHARGE>  (1) 
1

>  <JCHEM_PKA_STRONGEST_ACIDIC>  (1) 
14.087971415762247

>  <JCHEM_PKA_STRONGEST_BASIC>  (1) 
9.666166605708405

>  <JCHEM_POLAR_SURFACE_AREA>  (1) 
59.95

>  <JCHEM_REFRACTIVITY>  (1) 
92.15350000000001

>  <JCHEM_ROTATABLE_BOND_COUNT>  (1) 
12

>  <JCHEM_RULE_OF_FIVE>  (1) 
1

>  <ALOGPS_SOLUBILITY>  (1) 
7.07e-02 g/l

>  <JCHEM_TRADITIONAL_IUPAC>  (1) 
bisoprolol

>  <JCHEM_VEBER_RULE>  (1) 
0

>  <DRUGBANK_ID>  (1) 
DB00612

>  <SECONDARY_ACCESSION_NUMBERS>  (1) 
APRD00257

>  <DRUG_GROUPS>  (1) 
approved; investigational

>  <GENERIC_NAME>  (1) 
Bisoprolol

>  <SYNONYMS>  (1) 
(+-)-1-((alpha-(2-Isopropoxyethoxy)-p-tolyl)oxy)-3-(isopropylamino)-2-propanol; (RS)-1-(4-(2-Isopropoxyethoxymethyl)phenoxy)-3-(isopropylamino)-2-propanol; Bisoprolol; Bisoprololum

>  <PRODUCTS>  (1) 
Ag-bisoprolol; Apo-bisoprolol; Ava-bisoprolol; Bisoprolol; Bisoprolol Fumarate; Bisoprolol Fumarate Hydrochlorothiazide; Bisoprolol Fumarate and Hydrochlorothiazide; Bisoprolol Tablets; Bisoprolol fumarate; Dom-bisoprolol; Jamp Bisoprolol; Mint-bisoprolol; Monocor -(10mg); Monocor -(5mg); Mylan-bisoprolol; Nb-bisoprolol Tablets; Nu-bisoprolol; PHL-bisoprolol; PMS-bisoprolol; Pro-bisoprolol - 10; Pro-bisoprolol - 5; Prz-bisoprolol; Riva-bisoprolol; Sandoz Bisoprolol; Sandoz Bisoprolol Tablets; Teva-bisoprolol; Zebeta; Ziac

>  <INTERNATIONAL_BRANDS>  (1) 
Bisocor; Cardicor; Concor; Concore; Detensiel; Emconcor; Emcor; Euradal; Isoten; Monocor; Soprol

>  <SALTS>  (1) 
Bisoprolol fumarate

$$$$
