
     RDKit          2D

 26 28  0  0  0  0  0  0  0  0999 V2000
   -0.7557    0.6468    0.0000 C   0  0  0  0  0  0  0  0  0  0  0  0
   -0.7557   -1.0033    0.0000 N   0  0  0  0  0  0  0  0  0  0  0  0
   -0.0412    0.2342    0.0000 C   0  0  0  0  0  0  0  0  0  0  0  0
   -1.4703    0.2342    0.0000 C   0  0  0  0  0  0  0  0  0  0  0  0
   -0.0412   -0.5908    0.0000 C   0  0  0  0  0  0  0  0  0  0  0  0
   -1.4703   -0.5908    0.0000 C   0  0  0  0  0  0  0  0  0  0  0  0
   -0.7573   -1.8191    0.0000 C   0  0  0  0  0  0  0  0  0  0  0  0
    2.1015   -0.9958    0.0000 C   0  0  0  0  0  0  0  0  0  0  0  0
    0.6718   -1.8200    0.0000 C   0  0  0  0  0  0  0  0  0  0  0  0
    2.8163   -0.5837    0.0000 N   0  0  0  0  0  0  0  0  0  0  0  0
   -0.0429   -2.2322    0.0000 C   0  0  0  0  0  0  0  0  0  0  0  0
    2.1010   -1.8209    0.0000 C   0  0  0  0  0  0  0  0  0  0  0  0
    1.3872   -0.5828    0.0000 C   0  0  0  0  0  0  0  0  0  0  0  0
    1.3861   -2.2331    0.0000 C   0  0  0  0  0  0  0  0  0  0  0  0
    0.6724   -0.9949    0.0000 C   0  0  0  0  0  0  0  0  0  0  0  0
   -0.0688    1.8365    0.0000 O   0  0  0  0  0  0  0  0  0  0  0  0
   -0.0688    1.0433    0.0000 C   0  0  0  0  0  0  0  0  0  0  0  0
   -1.4426    1.8365    0.0000 C   0  0  0  0  0  0  0  0  0  0  0  0
   -1.4426    1.0433    0.0000 C   0  0  0  0  0  0  0  0  0  0  0  0
   -2.1295    2.2331    0.0000 C   0  0  0  0  0  0  0  0  0  0  0  0
   -2.8163    1.8364    0.0000 C   0  0  0  0  0  0  0  0  0  0  0  0
   -2.1295    0.6468    0.0000 C   0  0  0  0  0  0  0  0  0  0  0  0
   -2.8163    1.0433    0.0000 C   0  0  0  0  0  0  0  0  0  0  0  0
    0.6180    0.6468    0.0000 O   0  0  0  0  0  0  0  0  0  0  0  0
    1.3049    1.0433    0.0000 C   0  0  0  0  0  0  0  0  0  0  0  0
    1.9917    0.6467    0.0000 C   0  0  0  0  0  0  0  0  0  0  0  0
  3  1  1  0
  4  1  1  0
  6  2  1  0
  7  2  1  0
  5  2  1  0
  5  3  1  0
  6  4  1  0
 11  7  1  0
 13  8  2  0
 10  8  1  0
 12  8  1  0
 11  9  1  0
 14  9  1  0
 15  9  2  0
 14 12  2  0
 15 13  1  0
 17 16  2  0
  1 17  1  0
 19  1  1  0
 20 18  2  0
 19 18  1  0
 21 20  1  0
 22 19  2  0
 23 21  2  0
 23 22  1  0
 17 24  1  0
 24 25  1  0
 25 26  1  0
M  END
>  <DATABASE_ID>  (1) 
DB00913

>  <DATABASE_NAME>  (1) 
drugbank

>  <SMILES>  (1) 
CCOC(=O)C1(CCN(CCC2=CC=C(N)C=C2)CC1)C1=CC=CC=C1

>  <INCHI_IDENTIFIER>  (1) 
InChI=1S/C22H28N2O2/c1-2-26-21(25)22(19-6-4-3-5-7-19)13-16-24(17-14-22)15-12-18-8-10-20(23)11-9-18/h3-11H,2,12-17,23H2,1H3

>  <INCHI_KEY>  (1) 
LKYQLAWMNBFNJT-UHFFFAOYSA-N

>  <FORMULA>  (1) 
C22H28N2O2

>  <MOLECULAR_WEIGHT>  (1) 
352.4699

>  <EXACT_MASS>  (1) 
352.21507815

>  <JCHEM_ACCEPTOR_COUNT>  (1) 
3

>  <JCHEM_ATOM_COUNT>  (1) 
54

>  <JCHEM_AVERAGE_POLARIZABILITY>  (1) 
40.98114828100659

>  <JCHEM_BIOAVAILABILITY>  (1) 
1

>  <JCHEM_DONOR_COUNT>  (1) 
1

>  <JCHEM_FORMAL_CHARGE>  (1) 
0

>  <JCHEM_GHOSE_FILTER>  (1) 
1

>  <JCHEM_IUPAC>  (1) 
ethyl 1-[2-(4-aminophenyl)ethyl]-4-phenylpiperidine-4-carboxylate

>  <ALOGPS_LOGP>  (1) 
4.05

>  <JCHEM_LOGP>  (1) 
3.6400087643333334

>  <ALOGPS_LOGS>  (1) 
-4.46

>  <JCHEM_MDDR_LIKE_RULE>  (1) 
1

>  <JCHEM_NUMBER_OF_RINGS>  (1) 
3

>  <JCHEM_PHYSIOLOGICAL_CHARGE>  (1) 
1

>  <JCHEM_PKA_STRONGEST_BASIC>  (1) 
8.877914258147797

>  <JCHEM_POLAR_SURFACE_AREA>  (1) 
55.56

>  <JCHEM_REFRACTIVITY>  (1) 
106.55170000000001

>  <JCHEM_ROTATABLE_BOND_COUNT>  (1) 
7

>  <JCHEM_RULE_OF_FIVE>  (1) 
1

>  <ALOGPS_SOLUBILITY>  (1) 
1.24e-02 g/l

>  <JCHEM_TRADITIONAL_IUPAC>  (1) 
paricalcitol

>  <JCHEM_VEBER_RULE>  (1) 
0

>  <DRUGBANK_ID>  (1) 
DB00913

>  <SECONDARY_ACCESSION_NUMBERS>  (1) 
APRD00741

>  <DRUG_GROUPS>  (1) 
approved; illicit; withdrawn

>  <GENERIC_NAME>  (1) 
Anileridine

>  <SYNONYMS>  (1) 
1-[2-(4-aminophenyl)ethyl]-4-phenyl-4-piperidinecarboxlic acid ethyl ester; Anileridina; Anileridine; Anileridinum; ethyl 1-(2-(4-aminophenyl)ethyl)-4-phenyl-4-piperidinecarboxylate; ethyl 1-(4-aminophenethyl)-4-phenylisonipecotate; ethyl 1-(p-aminophenethyl)-4-phenylisonipecotate; N-(β-(p-aminophenyl)ethyl)-4-phenyl-4-carbethoxypiperidine; N-β-(p-aminophenyl)ethylnormeperidine

>  <PRODUCTS>  (1) 
Leritine Inj 25mg/ml; Leritine Tablets 25mg

>  <INTERNATIONAL_BRANDS>  (1) 
Apodol; Leritine

>  <SALTS>  (1) 
Anileridine hydrochloride; Anileridine phosphate

$$$$
