
     RDKit          2D

  1  0  0  0  0  0  0  0  0  0999 V2000
    0.0000    0.0000    0.0000 Kr  0  0  0  0  0 15  0  0  0  0  0  0
M  ISO  1   1  81
M  END
>  <DATABASE_ID>  (1) 
DB09443

>  <DATABASE_NAME>  (1) 
drugbank

>  <SMILES>  (1) 
[81Kr]

>  <INCHI_IDENTIFIER>  (1) 
InChI=1S/Kr/i1-3

>  <INCHI_KEY>  (1) 
DNNSSWSSYDEUBZ-OIOBTWANSA-N

>  <FORMULA>  (1) 
Kr

>  <MOLECULAR_WEIGHT>  (1) 
80.9166

>  <EXACT_MASS>  (1) 
80.916592419

>  <JCHEM_ACCEPTOR_COUNT>  (1) 
0

>  <JCHEM_ATOM_COUNT>  (1) 
1

>  <JCHEM_AVERAGE_POLARIZABILITY>  (1) 
1.7784

>  <JCHEM_BIOAVAILABILITY>  (1) 
1

>  <JCHEM_DONOR_COUNT>  (1) 
0

>  <JCHEM_FORMAL_CHARGE>  (1) 
0

>  <JCHEM_GHOSE_FILTER>  (1) 
0

>  <JCHEM_IUPAC>  (1) 
(81Kr)krypton

>  <JCHEM_LOGP>  (1) 
0.0

>  <JCHEM_MDDR_LIKE_RULE>  (1) 
0

>  <JCHEM_NUMBER_OF_RINGS>  (1) 
0

>  <JCHEM_PHYSIOLOGICAL_CHARGE>  (1) 
0

>  <JCHEM_POLAR_SURFACE_AREA>  (1) 
0.0

>  <JCHEM_REFRACTIVITY>  (1) 
0.0

>  <JCHEM_ROTATABLE_BOND_COUNT>  (1) 
0

>  <JCHEM_RULE_OF_FIVE>  (1) 
1

>  <JCHEM_TRADITIONAL_IUPAC>  (1) 
(81Kr)krypton

>  <JCHEM_VEBER_RULE>  (1) 
1

>  <DRUGBANK_ID>  (1) 
DB09443

>  <DRUG_GROUPS>  (1) 
approved

>  <GENERIC_NAME>  (1) 
Krypton Kr 81m

>  <SYNONYMS>  (1) 
Krypton (81M Kr); Krypton (81mKr); Krypton (81mKr) gas; Krypton Kr 81m; Krypton, isotope of mass 81; Krypton, Kr-81m

$$$$
