
     RDKit          2D

 16 16  0  0  0  0  0  0  0  0999 V2000
    2.1434   -0.4125    0.0000 C   0  0  0  0  0  0  0  0  0  0  0  0
    0.7145   -2.8875    0.0000 C   0  0  0  0  0  0  0  0  0  0  0  0
   -1.4289    0.8250    0.0000 C   0  0  0  0  0  0  0  0  0  0  0  0
    2.1434   -1.2375    0.0000 C   0  0  0  0  0  0  0  0  0  0  0  0
    1.4289   -2.4750    0.0000 C   0  0  0  0  0  0  0  0  0  0  0  0
    1.4289   -0.0000    0.0000 C   0  0  0  0  0  0  0  0  0  0  0  0
    1.4289    0.8250    0.0000 C   0  0  0  0  0  0  0  0  0  0  0  0
    0.0000   -0.0000    0.0000 C   0  0  0  0  0  0  0  0  0  0  0  0
    0.7145   -0.4125    0.0000 C   0  0  0  0  0  0  0  0  0  0  0  0
    0.7145    1.2375    0.0000 C   0  0  0  0  0  0  0  0  0  0  0  0
    0.0000    0.8250    0.0000 C   0  0  0  0  0  0  0  0  0  0  0  0
    0.7145   -1.2375    0.0000 C   0  0  0  0  0  0  0  0  0  0  0  0
    1.4289   -1.6500    0.0000 N   0  0  0  0  0  0  0  0  0  0  0  0
    0.7145    2.0625    0.0000 O   0  0  0  0  0  0  0  0  0  0  0  0
   -0.0000   -1.6500    0.0000 O   0  0  0  0  0  0  0  0  0  0  0  0
   -0.7145    1.2375    0.0000 O   0  0  0  0  0  0  0  0  0  0  0  0
  4  1  1  0
  5  2  1  0
  7  6  2  0
  9  6  1  0
  9  8  2  0
 10  7  1  0
 11  8  1  0
 11 10  2  0
 12  9  1  0
 13  4  1  0
 13  5  1  0
 13 12  1  0
 14 10  1  0
 15 12  2  0
 16  3  1  0
 16 11  1  0
M  END
>  <DATABASE_ID>  (1) 
DB08989

>  <DATABASE_NAME>  (1) 
drugbank

>  <SMILES>  (1) 
CCN(CC)C(=O)C1=CC(OC)=C(O)C=C1

>  <INCHI_IDENTIFIER>  (1) 
InChI=1S/C12H17NO3/c1-4-13(5-2)12(15)9-6-7-10(14)11(8-9)16-3/h6-8,14H,4-5H2,1-3H3

>  <INCHI_KEY>  (1) 
BQJODPIMMWWMFC-UHFFFAOYSA-N

>  <FORMULA>  (1) 
C12H17NO3

>  <MOLECULAR_WEIGHT>  (1) 
223.2683

>  <EXACT_MASS>  (1) 
223.120843415

>  <JCHEM_ACCEPTOR_COUNT>  (1) 
3

>  <JCHEM_ATOM_COUNT>  (1) 
33

>  <JCHEM_AVERAGE_NEUTRAL_MICROSPECIES_CHARGE>  (1) 
-0.011176014170016867

>  <JCHEM_AVERAGE_POLARIZABILITY>  (1) 
24.064723881066943

>  <JCHEM_BIOAVAILABILITY>  (1) 
1

>  <JCHEM_DONOR_COUNT>  (1) 
1

>  <JCHEM_FORMAL_CHARGE>  (1) 
0

>  <JCHEM_GHOSE_FILTER>  (1) 
1

>  <JCHEM_IUPAC>  (1) 
N,N-diethyl-4-hydroxy-3-methoxybenzamide

>  <ALOGPS_LOGP>  (1) 
1.81

>  <JCHEM_LOGP>  (1) 
1.5236175636666671

>  <ALOGPS_LOGS>  (1) 
-1.26

>  <JCHEM_MDDR_LIKE_RULE>  (1) 
0

>  <JCHEM_NEUTRAL_CHARGE>  (1) 
0

>  <JCHEM_NUMBER_OF_RINGS>  (1) 
1

>  <JCHEM_PHYSIOLOGICAL_CHARGE>  (1) 
0

>  <JCHEM_PKA_STRONGEST_ACIDIC>  (1) 
8.946831676342399

>  <JCHEM_PKA_STRONGEST_BASIC>  (1) 
-1.0229861264357418

>  <JCHEM_POLAR_SURFACE_AREA>  (1) 
49.769999999999996

>  <JCHEM_REFRACTIVITY>  (1) 
62.871100000000006

>  <JCHEM_ROTATABLE_BOND_COUNT>  (1) 
4

>  <JCHEM_RULE_OF_FIVE>  (1) 
1

>  <ALOGPS_SOLUBILITY>  (1) 
1.24e+01 g/l

>  <JCHEM_TRADITIONAL_IUPAC>  (1) 
biotin

>  <JCHEM_VEBER_RULE>  (1) 
0

>  <DRUGBANK_ID>  (1) 
DB08989

>  <DRUG_GROUPS>  (1) 
approved; withdrawn

>  <GENERIC_NAME>  (1) 
Etamivan

>  <SYNONYMS>  (1) 
étamivan; Etamivan; etamiván; Etamivanum; Ethamivan

>  <INTERNATIONAL_BRANDS>  (1) 
Analepticon; Vandid

$$$$
