
     RDKit          2D

 11 10  0  0  0  0  0  0  0  0999 V2000
   -0.7147   -0.1509    0.0000 C   0  0  0  0  0  0  0  0  0  0  0  0
    0.7142   -0.1509    0.0000 C   0  0  0  0  0  0  0  0  0  0  0  0
   -0.0001    0.2614    0.0000 C   0  0  0  0  0  0  0  0  0  0  0  0
    0.7142   -0.9760    0.0000 F   0  0  0  0  0  0  0  0  0  0  0  0
    1.4287    0.2614    0.0000 F   0  0  0  0  0  0  0  0  0  0  0  0
    1.4290   -0.5662    0.0000 F   0  0  0  0  0  0  0  0  0  0  0  0
   -0.4126    0.9760    0.0000 F   0  0  0  0  0  0  0  0  0  0  0  0
    0.4123    0.9759    0.0000 F   0  0  0  0  0  0  0  0  0  0  0  0
   -1.4290    0.2614    0.0000 F   0  0  0  0  0  0  0  0  0  0  0  0
   -0.7147   -0.9760    0.0000 F   0  0  0  0  0  0  0  0  0  0  0  0
   -1.4261   -0.5563    0.0000 F   0  0  0  0  0  0  0  0  0  0  0  0
  1  3  1  0
  3  2  1  0
  2  4  1  0
  2  5  1  0
  2  6  1  0
  7  3  1  0
  8  3  1  0
  1 10  1  0
  1  9  1  0
  1 11  1  0
M  END
>  <DATABASE_ID>  (1) 
DB00556

>  <DATABASE_NAME>  (1) 
drugbank

>  <SMILES>  (1) 
FC(F)(F)C(F)(F)C(F)(F)F

>  <INCHI_IDENTIFIER>  (1) 
InChI=1S/C3F8/c4-1(5,2(6,7)8)3(9,10)11

>  <INCHI_KEY>  (1) 
QYSGYZVSCZSLHT-UHFFFAOYSA-N

>  <FORMULA>  (1) 
C3F8

>  <MOLECULAR_WEIGHT>  (1) 
188.0193

>  <EXACT_MASS>  (1) 
187.98722564

>  <JCHEM_ACCEPTOR_COUNT>  (1) 
0

>  <JCHEM_ATOM_COUNT>  (1) 
11

>  <JCHEM_AVERAGE_POLARIZABILITY>  (1) 
7.095292023656694

>  <JCHEM_BIOAVAILABILITY>  (1) 
1

>  <JCHEM_DONOR_COUNT>  (1) 
0

>  <JCHEM_FORMAL_CHARGE>  (1) 
0

>  <JCHEM_GHOSE_FILTER>  (1) 
0

>  <JCHEM_IUPAC>  (1) 
octafluoropropane

>  <ALOGPS_LOGP>  (1) 
2.96

>  <JCHEM_LOGP>  (1) 
2.7823601316666666

>  <ALOGPS_LOGS>  (1) 
-3.11

>  <JCHEM_MDDR_LIKE_RULE>  (1) 
0

>  <JCHEM_NUMBER_OF_RINGS>  (1) 
0

>  <JCHEM_PHYSIOLOGICAL_CHARGE>  (1) 
0

>  <JCHEM_POLAR_SURFACE_AREA>  (1) 
0.0

>  <JCHEM_REFRACTIVITY>  (1) 
17.5372

>  <JCHEM_ROTATABLE_BOND_COUNT>  (1) 
2

>  <JCHEM_RULE_OF_FIVE>  (1) 
1

>  <ALOGPS_SOLUBILITY>  (1) 
1.46e-01 g/l

>  <JCHEM_TRADITIONAL_IUPAC>  (1) 
perflutren

>  <JCHEM_VEBER_RULE>  (1) 
1

>  <DRUGBANK_ID>  (1) 
DB00556

>  <SECONDARY_ACCESSION_NUMBERS>  (1) 
APRD01177

>  <DRUG_GROUPS>  (1) 
approved; investigational

>  <GENERIC_NAME>  (1) 
Perflutren

>  <SYNONYMS>  (1) 
1,1,1,2,2,3,3,3-octafluoropropane; Freon 218; Octafluoropropane; Octafluorpropan; Oktafluorpropan; Perfluoropropane; Perflutren; Perflutreno

>  <PRODUCTS>  (1) 
Definity; Definity RT; Luminity; Optison; Optison Perflutren Protein-Type A Microspheres

>  <INTERNATIONAL_BRANDS>  (1) 
Optison

$$$$
