599
     RDKit          2D

 16 16  0  0  1  0  0  0  0  0999 V2000
    3.0791   -2.6665    0.0000 S   0  0  0  0  0  0  0  0  0  0  0  0
    4.5080   -0.1915    0.0000 O   0  0  0  0  0  0  0  0  0  0  0  0
    1.6500   -0.1915    0.0000 O   0  0  0  0  0  0  0  0  0  0  0  0
    3.7935   -1.4290    0.0000 N   0  0  0  0  0  0  0  0  0  0  0  0
    2.3645   -1.4290    0.0000 N   0  0  0  0  0  0  0  0  0  0  0  0
    3.0791   -0.1915    0.0000 C   0  0  0  0  0  0  0  0  0  0  0  0
    3.4916    0.5231    0.0000 C   0  0  0  0  0  0  0  0  0  0  0  0
    3.0791    1.2375    0.0000 C   0  0  0  0  0  0  0  0  0  0  0  0
    2.6665    0.5231    0.0000 C   0  0  0  0  0  0  0  0  0  0  0  0
    3.7935   -0.6040    0.0000 C   0  0  0  0  0  0  0  0  0  0  0  0
    2.3645   -0.6040    0.0000 C   0  0  0  0  0  0  0  0  0  0  0  0
    4.3166    0.5231    0.0000 C   0  0  0  0  0  0  0  0  0  0  0  0
    3.4916    1.9520    0.0000 C   0  0  0  0  0  0  0  0  0  0  0  0
    1.8415    0.5231    0.0000 C   0  0  0  0  0  0  0  0  0  0  0  0
    3.0791   -1.8415    0.0000 C   0  0  0  0  0  0  0  0  0  0  0  0
    3.0791    2.6665    0.0000 C   0  0  0  0  0  0  0  0  0  0  0  0
  1 15  2  0
  2 10  2  0
  3 11  2  0
  4 10  1  0
  4 15  1  0
  5 11  1  0
  5 15  1  0
  6  7  1  0
  6  9  1  0
  6 10  1  0
  6 11  1  0
  7  8  1  0
  7 12  1  0
  8 13  1  0
  9 14  1  0
 13 16  1  0
M  END
>  <DATABASE_ID>  (1) 
DB00599

>  <DATABASE_NAME>  (1) 
drugbank

>  <SMILES>  (1) 
CCCC(C)C1(CC)C(=O)NC(=S)NC1=O

>  <INCHI_IDENTIFIER>  (1) 
InChI=1S/C11H18N2O2S/c1-4-6-7(3)11(5-2)8(14)12-10(16)13-9(11)15/h7H,4-6H2,1-3H3,(H2,12,13,14,15,16)

>  <INCHI_KEY>  (1) 
IUJDSEJGGMCXSG-UHFFFAOYSA-N

>  <FORMULA>  (1) 
C11H18N2O2S

>  <MOLECULAR_WEIGHT>  (1) 
242.338

>  <EXACT_MASS>  (1) 
242.10889852

>  <JCHEM_ACCEPTOR_COUNT>  (1) 
2

>  <JCHEM_ATOM_COUNT>  (1) 
34

>  <JCHEM_AVERAGE_NEUTRAL_MICROSPECIES_CHARGE>  (1) 
-0.3868910594915421

>  <JCHEM_AVERAGE_POLARIZABILITY>  (1) 
25.70487362972878

>  <JCHEM_BIOAVAILABILITY>  (1) 
1

>  <JCHEM_DONOR_COUNT>  (1) 
2

>  <JCHEM_FORMAL_CHARGE>  (1) 
0

>  <JCHEM_GHOSE_FILTER>  (1) 
1

>  <JCHEM_IUPAC>  (1) 
5-ethyl-5-(pentan-2-yl)-2-sulfanylidene-1,3-diazinane-4,6-dione

>  <ALOGPS_LOGP>  (1) 
3.05

>  <JCHEM_LOGP>  (1) 
2.783120831

>  <ALOGPS_LOGS>  (1) 
-3.78

>  <JCHEM_MDDR_LIKE_RULE>  (1) 
0

>  <JCHEM_NEUTRAL_CHARGE>  (1) 
0

>  <JCHEM_NUMBER_OF_RINGS>  (1) 
1

>  <JCHEM_PHYSIOLOGICAL_CHARGE>  (1) 
-1

>  <JCHEM_PKA>  (1) 
10.721906298403653

>  <JCHEM_PKA_STRONGEST_ACIDIC>  (1) 
7.2006434925875995

>  <JCHEM_PKA_STRONGEST_BASIC>  (1) 
-7.956832696383835

>  <JCHEM_POLAR_SURFACE_AREA>  (1) 
58.2

>  <JCHEM_REFRACTIVITY>  (1) 
65.99380000000001

>  <JCHEM_ROTATABLE_BOND_COUNT>  (1) 
4

>  <JCHEM_RULE_OF_FIVE>  (1) 
1

>  <ALOGPS_SOLUBILITY>  (1) 
3.98e-02 g/l

>  <JCHEM_TRADITIONAL_IUPAC>  (1) 
tetrahydrofolic acid

>  <JCHEM_VEBER_RULE>  (1) 
0

>  <DRUGBANK_ID>  (1) 
DB00599

>  <SECONDARY_ACCESSION_NUMBERS>  (1) 
APRD00660

>  <DRUG_GROUPS>  (1) 
approved; investigational; vet_approved; withdrawn

>  <GENERIC_NAME>  (1) 
Thiopental

>  <SYNONYMS>  (1) 
(±)-thiopental; 2-Thio-5-ethyl-5-sec-pentylbarbituric acid; 5-Ethyl-5-(1-methyl-butyl)-2-thioxo-dihydro-pyrimidine-4,6-dione; Penthiobarbital; Pentothiobarbital; Thiopental; Thiopentobarbital; Thiopentobarbitone; Thiopentobarbituric acid; Thiopentone; Tiopentale

>  <PRODUCTS>  (1) 
Pentothal Inj 25mg/ml; Pentothal Inj 500mg/syr; Pentothal Ready To Mix Syringe 250mg; Pentothal Sodium Inj 1gm Sterile; Pentothal Sodium Pws 5gm; Thiopental Sodium

>  <INTERNATIONAL_BRANDS>  (1) 
Anestho; Bensulf; Bitol Sodium; Ekipental; Farmotal; Intraval Sodium; Pental Sodyum; Pentazol; Penthal; Penthotal Sodium; Pentotan; Pentotex; Pentothal; Ravonal; Thiopen; Tiopental; Trapanal

>  <SALTS>  (1) 
Thiopental sodium

$$$$
