
     RDKit          2D

 40 42  0  0  0  0  0  0  0  0999 V2000
    1.0717   -2.7536    0.0000 C   0  0  0  0  0  0  0  0  0  0  0  0
    1.0717   -3.5786    0.0000 C   0  0  0  0  0  0  0  0  0  0  0  0
   -0.3572   -2.7536    0.0000 O   0  0  0  0  0  0  0  0  0  0  0  0
    0.3572   -2.3411    0.0000 C   0  0  0  0  0  0  0  0  0  0  0  0
    0.3572   -3.9911    0.0000 C   0  0  0  0  0  0  0  0  0  0  0  0
   -0.3572   -3.5786    0.0000 C   0  0  0  0  0  0  0  0  0  0  0  0
   -1.5797   -0.6187    0.0000 C   0  0  0  0  0  0  0  0  0  0  0  0
   -2.4047   -0.6187    0.0000 C   0  0  0  0  0  0  0  0  0  0  0  0
   -1.0948    0.0487    0.0000 O   0  0  0  0  0  0  0  0  0  0  0  0
   -0.3101   -0.2062    0.0000 C   0  0  0  0  0  0  0  0  0  0  0  0
   -0.3101   -1.0312    0.0000 C   0  0  0  0  0  0  0  0  0  0  0  0
    0.3572    0.2786    0.0000 O   0  0  0  0  0  0  0  0  0  0  0  0
    1.0717    2.3411    0.0000 C   0  0  0  0  0  0  0  0  0  0  0  0
    1.7861    2.7536    0.0000 O   0  0  0  0  0  0  0  0  0  0  0  0
    0.3572    1.1036    0.0000 C   0  0  0  0  0  0  0  0  0  0  0  0
   -0.3572    2.3411    0.0000 C   0  0  0  0  0  0  0  0  0  0  0  0
   -1.0716    2.7536    0.0000 O   0  0  0  0  0  0  0  0  0  0  0  0
   -0.3572    1.5161    0.0000 C   0  0  0  0  0  0  0  0  0  0  0  0
    0.3572    2.7536    0.0000 C   0  0  0  0  0  0  0  0  0  0  0  0
    1.0717    1.5161    0.0000 C   0  0  0  0  0  0  0  0  0  0  0  0
    1.7861    1.1036    0.0000 O   0  0  0  0  0  0  0  0  0  0  0  0
   -1.0716    1.1036    0.0000 N   0  0  0  0  0  0  0  0  0  0  0  0
   -2.5006    1.1036    0.0000 N   0  0  0  0  0  0  0  0  0  0  0  0
   -1.7861    1.5161    0.0000 C   0  0  0  0  0  0  0  0  0  0  0  0
   -1.7861    2.3411    0.0000 N   0  0  0  0  0  0  0  0  0  0  0  0
    0.3572   -1.5161    0.0000 O   0  0  0  0  0  0  0  0  0  0  0  0
    0.3572   -4.8161    0.0000 O   0  0  0  0  0  0  0  0  0  0  0  0
    1.7861   -3.9911    0.0000 O   0  0  0  0  0  0  0  0  0  0  0  0
   -1.0716   -3.9911    0.0000 C   0  0  0  0  0  0  0  0  0  0  0  0
   -1.7861   -3.5786    0.0000 O   0  0  0  0  0  0  0  0  0  0  0  0
    2.5006   -2.7536    0.0000 C   0  0  0  0  0  0  0  0  0  0  0  0
    1.7861   -2.3411    0.0000 N   0  0  0  0  0  0  0  0  0  0  0  0
    0.3572    3.5786    0.0000 N   0  0  0  0  0  0  0  0  0  0  0  0
    1.7861    3.5786    0.0000 N   0  0  0  0  0  0  0  0  0  0  0  0
    1.0717    3.9911    0.0000 C   0  0  0  0  0  0  0  0  0  0  0  0
    1.0717    4.8161    0.0000 N   0  0  0  0  0  0  0  0  0  0  0  0
   -1.5073   -2.0006    0.0000 C   0  0  0  0  0  0  0  0  0  0  0  0
   -2.3323   -2.0006    0.0000 O   0  0  0  0  0  0  0  0  0  0  0  0
   -1.0948   -1.2861    0.0000 C   0  0  0  0  0  0  0  0  0  0  0  0
   -0.8812   -2.0830    0.0000 O   0  0  0  0  0  0  0  0  0  0  0  0
  1 32  1  1
  2  1  1  0
  2 28  1  6
  3  4  1  0
  1  4  1  0
  4 26  1  1
  5  2  1  0
  5 27  1  1
  6  5  1  0
  3  6  1  0
  6 29  1  6
  9  7  1  0
  7 39  1  0
  7  8  1  6
  9 10  1  0
 11 10  1  0
 10 12  1  1
 39 11  1  0
 11 26  1  6
 15 12  1  6
 19 13  1  0
 20 13  1  0
 13 14  1  6
 18 15  1  0
 15 20  1  0
 19 16  1  0
 16 18  1  0
 16 17  1  6
 18 22  1  1
 19 33  1  1
 20 21  1  1
 22 24  1  0
 24 23  1  0
 24 25  2  0
 29 30  1  0
 32 31  1  0
 35 33  1  0
 34 35  1  0
 35 36  2  0
 39 37  1  0
 37 38  1  0
 39 40  1  6
M  END
>  <DATABASE_ID>  (1) 
DB11512

>  <DATABASE_NAME>  (1) 
drugbank

>  <SMILES>  (1) 
CN[C@H]1[C@H](O)[C@@H](O)[C@H](CO)O[C@H]1O[C@H]1[C@H](O[C@H]2[C@H](O)[C@@H](O)[C@H](NC(N)=N)[C@@H](O)[C@@H]2NC(N)=N)O[C@@H](C)[C@]1(O)CO

>  <INCHI_IDENTIFIER>  (1) 
InChI=1S/C21H41N7O12/c1-5-21(36,4-30)16(40-17-9(26-2)13(34)10(31)6(3-29)38-17)18(37-5)39-15-8(28-20(24)25)11(32)7(27-19(22)23)12(33)14(15)35/h5-18,26,29-36H,3-4H2,1-2H3,(H4,22,23,27)(H4,24,25,28)/t5-,6-,7+,8-,9-,10-,11+,12-,13-,14+,15+,16-,17-,18-,21+/m0/s1

>  <INCHI_KEY>  (1) 
ASXBYYWOLISCLQ-HZYVHMACSA-N

>  <FORMULA>  (1) 
C21H41N7O12

>  <MOLECULAR_WEIGHT>  (1) 
583.596

>  <EXACT_MASS>  (1) 
583.281319788

>  <JCHEM_ACCEPTOR_COUNT>  (1) 
19

>  <JCHEM_ATOM_COUNT>  (1) 
81

>  <JCHEM_AVERAGE_NEUTRAL_MICROSPECIES_CHARGE>  (1) 
2.925707682129069

>  <JCHEM_AVERAGE_POLARIZABILITY>  (1) 
56.66441231156106

>  <JCHEM_BIOAVAILABILITY>  (1) 
0

>  <JCHEM_DONOR_COUNT>  (1) 
15

>  <JCHEM_FORMAL_CHARGE>  (1) 
0

>  <JCHEM_GHOSE_FILTER>  (1) 
0

>  <JCHEM_IUPAC>  (1) 
N-[(1S,2R,3R,4S,5R,6R)-3-carbamimidamido-6-{[(2R,3R,4R,5S)-3-{[(2S,3S,4S,5R,6S)-4,5-dihydroxy-6-(hydroxymethyl)-3-(methylamino)oxan-2-yl]oxy}-4-hydroxy-4-(hydroxymethyl)-5-methyloxolan-2-yl]oxy}-2,4,5-trihydroxycyclohexyl]guanidine

>  <ALOGPS_LOGP>  (1) 
-3.02

>  <JCHEM_LOGP>  (1) 
-7.349804055213099

>  <ALOGPS_LOGS>  (1) 
-1.56

>  <JCHEM_MDDR_LIKE_RULE>  (1) 
1

>  <JCHEM_NEUTRAL_CHARGE>  (1) 
3

>  <JCHEM_NUMBER_OF_RINGS>  (1) 
3

>  <JCHEM_PHYSIOLOGICAL_CHARGE>  (1) 
3

>  <JCHEM_PKA_STRONGEST_ACIDIC>  (1) 
12.106282431456165

>  <JCHEM_PKA_STRONGEST_BASIC>  (1) 
11.30815817921976

>  <JCHEM_POLAR_SURFACE_AREA>  (1) 
334.59000000000003

>  <JCHEM_REFRACTIVITY>  (1) 
150.4536

>  <JCHEM_ROTATABLE_BOND_COUNT>  (1) 
9

>  <JCHEM_RULE_OF_FIVE>  (1) 
0

>  <ALOGPS_SOLUBILITY>  (1) 
1.60e+01 g/l

>  <JCHEM_TRADITIONAL_IUPAC>  (1) 
[(2R,3S,4R,5R)-3,4-dihydroxy-5-(4-hydroxy-5-methyl-2-oxopyrimidin-1-yl)oxolan-2-yl]methoxyphosphonic acid

>  <JCHEM_VEBER_RULE>  (1) 
0

>  <DRUGBANK_ID>  (1) 
DB11512

>  <DRUG_GROUPS>  (1) 
approved; vet_approved; withdrawn

>  <GENERIC_NAME>  (1) 
Dihydrostreptomycin

>  <SYNONYMS>  (1) 
DHMS; Dihidroestreptomicina; Dihydrostreptomycin; Dihydrostreptomycine; Dihydrostreptomycinum; DST; N,N'''-[(1R,2R,3S,4R,5R,6S)-4-({5-deoxy-2-O-[2-deoxy-2-(methylamino)-a-L-glucopyranosyl]-3-C-(hydroxymethyl)-a-L-lyxofuranosyl}oxy)-2,5,6-trihydroxycyclohexane-1,3-diyl]diguanidine; N,N'''-[(1R,2R,3S,4R,5R,6S)-4-({5-deoxy-2-O-[2-deoxy-2-(methylamino)-alpha-L-glucopyranosyl]-3-C-(hydroxymethyl)-alpha-L-lyxofuranosyl}oxy)-2,5,6-trihydroxycyclohexane-1,3-diyl]diguanidine; N,N'''-[(1R,2R,3S,4R,5R,6S)-4-({5-deoxy-2-O-[2-deoxy-2-(methylamino)-α-L-glucopyranosyl]-3-C-(hydroxymethyl)-α-L-lyxofuranosyl}oxy)-2,5,6-trihydroxycyclohexane-1,3-diyl]diguanidine

>  <INTERNATIONAL_BRANDS>  (1) 
Panstreptin

>  <SALTS>  (1) 
Dihydrostreptomycin sulfate

$$$$
