
     RDKit          2D

 34 35  0  0  0  0  0  0  0  0999 V2000
   -4.2869   -1.6500    0.0000 C   0  0  0  0  0  0  0  0  0  0  0  0
   -4.2869   -0.8249    0.0000 C   0  0  0  0  0  0  0  0  0  0  0  0
   -2.1435   -0.4124    0.0000 C   0  0  0  0  0  0  0  0  0  0  0  0
   -2.8580   -0.8249    0.0000 C   0  0  0  0  0  0  0  0  0  0  0  0
   -3.5724   -0.4124    0.0000 C   0  0  0  0  0  0  0  0  0  0  0  0
   -5.0014   -0.4124    0.0000 C   0  0  0  0  0  0  0  0  0  0  0  0
   -5.7158   -0.8249    0.0000 O   0  0  0  0  0  0  0  0  0  0  0  0
   -5.0014    0.4124    0.0000 C   0  0  0  0  0  0  0  0  0  0  0  0
   -5.7158    0.8249    0.0000 C   0  0  0  0  0  0  0  0  0  0  0  0
   -4.2869    0.8249    0.0000 C   0  0  0  0  0  0  0  0  0  0  0  0
   -4.2869    1.6500    0.0000 C   0  0  0  0  0  0  0  0  0  0  0  0
   -3.5724    0.4124    0.0000 C   0  0  0  0  0  0  0  0  0  0  0  0
   -2.8580    0.8249    0.0000 O   0  0  0  0  0  0  0  0  0  0  0  0
    6.4303   -0.4124    0.0000 C   0  0  0  0  0  0  0  0  0  0  0  0
    6.4303    0.4124    0.0000 C   0  0  0  0  0  0  0  0  0  0  0  0
    7.1447    0.8249    0.0000 C   0  0  0  0  0  0  0  0  0  0  0  0
    5.7158    0.8249    0.0000 C   0  0  0  0  0  0  0  0  0  0  0  0
    5.0013    0.4124    0.0000 C   0  0  0  0  0  0  0  0  0  0  0  0
    4.2868    0.8249    0.0000 C   0  0  0  0  0  0  0  0  0  0  0  0
    3.5723    0.4124    0.0000 C   0  0  0  0  0  0  0  0  0  0  0  0
    3.5723   -0.4124    0.0000 C   0  0  0  0  0  0  0  0  0  0  0  0
    2.8579    0.8249    0.0000 C   0  0  0  0  0  0  0  0  0  0  0  0
    2.1433    0.4124    0.0000 C   0  0  0  0  0  0  0  0  0  0  0  0
    1.4289    0.8249    0.0000 C   0  0  0  0  0  0  0  0  0  0  0  0
    0.7144    0.4124    0.0000 C   0  0  0  0  0  0  0  0  0  0  0  0
    0.7144   -0.4124    0.0000 C   0  0  0  0  0  0  0  0  0  0  0  0
    0.0000    0.8249    0.0000 C   0  0  0  0  0  0  0  0  0  0  0  0
   -0.7144    0.4124    0.0000 C   0  0  0  0  0  0  0  0  0  0  0  0
   -1.4290    0.8249    0.0000 C   0  0  0  0  0  0  0  0  0  0  0  0
   -2.1435    0.4124    0.0000 C   0  0  0  0  0  0  0  0  0  0  0  0
   -1.4290    0.0000    0.0000 C   0  0  0  0  0  0  0  0  0  0  0  0
   -6.4302   -0.4124    0.0000 C   0  0  0  0  0  0  0  0  0  0  0  0
   -7.1447   -0.8249    0.0000 C   0  0  0  0  0  0  0  0  0  0  0  0
   -6.4302    0.4124    0.0000 O   0  0  0  0  0  0  0  0  0  0  0  0
  2  1  1  0
 30 29  1  0
 30  3  1  0
  3  4  1  0
  5  2  2  0
  4  5  1  0
  2  6  1  0
  6  7  1  0
  8  6  2  0
  8  9  1  0
 10  8  1  0
 10 11  1  0
 12 10  2  0
 12  5  1  0
 30 13  1  0
 12 13  1  0
 14 15  1  0
 15 16  1  0
 15 17  1  0
 17 18  1  0
 18 19  1  0
 19 20  1  0
 20 21  1  1
 20 22  1  0
 22 23  1  0
 23 24  1  0
 24 25  1  0
 25 26  1  1
 25 27  1  0
 27 28  1  0
 28 29  1  0
 30 31  1  1
  7 32  1  0
 32 33  1  0
 32 34  2  0
M  END
>  <DATABASE_ID>  (1) 
DB14002

>  <DATABASE_NAME>  (1) 
drugbank

>  <SMILES>  (1) 
CC(C)CCC[C@@H](C)CCC[C@@H](C)CCC[C@]1(C)CCC2=C(C)C(OC(C)=O)=C(C)C(C)=C2O1

>  <INCHI_IDENTIFIER>  (1) 
InChI=1S/C31H52O3/c1-21(2)13-10-14-22(3)15-11-16-23(4)17-12-19-31(9)20-18-28-26(7)29(33-27(8)32)24(5)25(6)30(28)34-31/h21-23H,10-20H2,1-9H3/t22-,23-,31-/m1/s1

>  <INCHI_KEY>  (1) 
ZAKOWWREFLAJOT-CEFNRUSXSA-N

>  <FORMULA>  (1) 
C31H52O3

>  <MOLECULAR_WEIGHT>  (1) 
472.7428

>  <EXACT_MASS>  (1) 
472.39164553

>  <JCHEM_ACCEPTOR_COUNT>  (1) 
2

>  <JCHEM_ATOM_COUNT>  (1) 
86

>  <JCHEM_AVERAGE_POLARIZABILITY>  (1) 
60.48235944908521

>  <JCHEM_BIOAVAILABILITY>  (1) 
0

>  <JCHEM_DONOR_COUNT>  (1) 
0

>  <JCHEM_FORMAL_CHARGE>  (1) 
0

>  <JCHEM_GHOSE_FILTER>  (1) 
0

>  <JCHEM_IUPAC>  (1) 
(2R)-2,5,7,8-tetramethyl-2-[(4R,8R)-4,8,12-trimethyltridecyl]-3,4-dihydro-2H-1-benzopyran-6-yl acetate

>  <ALOGPS_LOGP>  (1) 
9.19

>  <JCHEM_LOGP>  (1) 
10.418543556000001

>  <ALOGPS_LOGS>  (1) 
-8.21

>  <JCHEM_MDDR_LIKE_RULE>  (1) 
0

>  <JCHEM_NUMBER_OF_RINGS>  (1) 
2

>  <JCHEM_PHYSIOLOGICAL_CHARGE>  (1) 
0

>  <JCHEM_PKA_STRONGEST_BASIC>  (1) 
-4.8567558795249655

>  <JCHEM_POLAR_SURFACE_AREA>  (1) 
35.53

>  <JCHEM_REFRACTIVITY>  (1) 
144.52559999999994

>  <JCHEM_ROTATABLE_BOND_COUNT>  (1) 
14

>  <JCHEM_RULE_OF_FIVE>  (1) 
0

>  <ALOGPS_SOLUBILITY>  (1) 
2.93e-06 g/l

>  <JCHEM_TRADITIONAL_IUPAC>  (1) 
tocopheryl acetate

>  <JCHEM_VEBER_RULE>  (1) 
0

>  <DRUGBANK_ID>  (1) 
DB14002

>  <SECONDARY_ACCESSION_NUMBERS>  (1) 
DBSALT001457

>  <DRUG_GROUPS>  (1) 
approved; nutraceutical; vet_approved

>  <GENERIC_NAME>  (1) 
D-alpha-Tocopherol acetate

>  <SYNONYMS>  (1) 
(+)-alfa-tocopherol acetate; alpha-tocopheryl acetate, D-; D-alpha tocoferil acetate; D-alpha tocopheryl acetate; D-alpha-Tocopheryl acetate; RRR-alpha-tocopheryl acetate; Vitamin E acetate, D-

>  <PRODUCTS>  (1) 
Active OB; Allbee C 800 Tab; Aquasol E Capsules 100 I.U.; Aquasol E Capsules 100unit; C.E.b12 Complex Pwr; Cheon Shim Bo Hwa; Cheon Shim Bo Yun; Childrens Chewab Vitamin W Chel Minerals; Clear Base E 800iu Cap; Coen.q10w.vit.c and E Beta-car.se Cu Zn Mn; Daily Balance Tab; Duet DHA; Duet DHA 400; Duet DHA 400 ec; Duet DHA Balanced; E Vitamin 200 I.U. (natural Source) - Cap; E Vitamin 400 I.U. (natural Source)-cap; Escavite Lq; FloraFol; Florraxyl; Folet DHA; Foltabs Prenatal Plus DHA; Formula Cp Cap; Germacil; Gnc Natural Source Vitamin E Capsule 600 Iu; Grand Master Formula Tab; IQQU Advanced Sunscreen SPF 50; Innersource Tab; Iron With Vitamins C and E - Tab; Iron, Vit & Min Supp; Kamu Jay Multi Complex Tab; Lipall Plus Tab; Livita Adults; Livita Children; Marnatal F; Molyhen; Moms Choice Rx; Multi Vitamin and Mineral vitamin; Multivitamin Drops With Fluoride; NESTABS Prenatal Multi-vitamin/Mineral Supplement; NataChew; Nlihome Dental Care; Nuprimol Cap; Nutri-Tab OB; Nutri-Tab OB plus DHA; Nutrol V Capsule; OB Complete Petite; Obstetrix ONE; Obtrex One; Only One - Tablet; Paire OB Plus DHA; Poly-VI-flor; Poly-Vi-Flor; Premium Prenatal - Tablets; Prenatal Formula Tab; Quflora FE Pediatric Drops; Quflora Gummies; Quflora Pediatric Drops; Super Vita Vim Multivitamins and Minerals; Sweet Sixteen - Tab; Theraplex E Tab 2.5unit; Timed Release Vita-vim Srt; TriStart DHA; Vit E 400unit W Selenium 50mcg; Vita Vim Multivitamins and Minerals Tab; Vita Vim With Beta Carotene-caplet; Vitamin A C E W.niacinam.beta Car.and Min.; Vitamin E 400I.U. Cap; Vitamin E 400I.U.with Selenium 50mcg-tab; Vitamin E Cap 100iu Nf Natural Source; Vitamin E Cap 100unit; Vitamin E Cap 100unit USP; Vitamin E Cap 200iu; Vitamin E Cap 200unit; Vitamin E Cap 200unit USP; Vitamin E Cap 400iu; Vitamin E Cap 400unit; Vitamin E Cap 400unit USP; Vitamin E Cap 800unit; Vitamine E 100 Cap; Vitamine E 800 Cap; Vitamine E Cap 800iu; Vitamine E Cap 800unit USP; Viva Kids - Tab; Webber E Plus 3 Cap; Webber Vitamin E Cap 200unit Original; WestGel DHA

$$$$
