
     RDKit          2D

 28 30  0  0  0  0  0  0  0  0999 V2000
   -4.2315    1.6096    0.0000 C   0  0  0  0  0  0  0  0  0  0  0  0
   -5.0565    1.6096    0.0000 C   0  0  0  0  0  0  0  0  0  0  0  0
   -5.3115    0.8250    0.0000 C   0  0  0  0  0  0  0  0  0  0  0  0
   -4.6440    0.3401    0.0000 O   0  0  0  0  0  0  0  0  0  0  0  0
   -3.9766    0.8250    0.0000 C   0  0  0  0  0  0  0  0  0  0  0  0
   -3.2622    0.4125    0.0000 C   0  0  0  0  0  0  0  0  0  0  0  0
   -2.5477    0.8250    0.0000 N   0  0  0  0  0  0  0  0  0  0  0  0
   -1.8332    0.4125    0.0000 C   0  0  0  0  0  0  0  0  0  0  0  0
   -1.1187    0.8250    0.0000 C   0  0  0  0  0  0  0  0  0  0  0  0
   -0.4043    0.4125    0.0000 C   0  0  0  0  0  0  0  0  0  0  0  0
    0.3101    0.8250    0.0000 N   0  0  0  0  0  0  0  0  0  0  0  0
    1.0246    0.4125    0.0000 C   0  0  0  0  0  0  0  0  0  0  0  0
    2.4536    0.4125    0.0000 C   0  0  0  0  0  0  0  0  0  0  0  0
    1.7391    0.8250    0.0000 N   0  0  0  0  0  0  0  0  0  0  0  0
    1.0246   -0.4125    0.0000 N   0  0  0  0  0  0  0  0  0  0  0  0
    1.7391   -0.8250    0.0000 C   0  0  0  0  0  0  0  0  0  0  0  0
    2.4536   -0.4125    0.0000 C   0  0  0  0  0  0  0  0  0  0  0  0
    3.1680   -0.8250    0.0000 C   0  0  0  0  0  0  0  0  0  0  0  0
    3.8825   -0.4125    0.0000 C   0  0  0  0  0  0  0  0  0  0  0  0
    3.8825    0.4125    0.0000 C   0  0  0  0  0  0  0  0  0  0  0  0
    3.1680    0.8250    0.0000 C   0  0  0  0  0  0  0  0  0  0  0  0
    4.5970    0.8250    0.0000 O   0  0  0  0  0  0  0  0  0  0  0  0
    4.5970   -0.8250    0.0000 O   0  0  0  0  0  0  0  0  0  0  0  0
   -3.2622   -0.4125    0.0000 O   0  0  0  0  0  0  0  0  0  0  0  0
    1.7391   -1.6500    0.0000 N   0  0  0  0  0  0  0  0  0  0  0  0
    5.3115    0.4125    0.0000 C   0  0  0  0  0  0  0  0  0  0  0  0
    5.3115   -0.4125    0.0000 C   0  0  0  0  0  0  0  0  0  0  0  0
    0.3101    1.6500    0.0000 C   0  0  0  0  0  0  0  0  0  0  0  0
  1  2  1  0
  1  5  1  0
  2  3  1  0
  3  4  1  0
  4  5  1  0
  5  6  1  0
  6  7  1  0
  7  8  1  0
  8  9  1  0
  9 10  1  0
 10 11  1  0
 11 12  1  0
 14 12  2  0
 12 15  1  0
 13 14  1  0
 13 17  2  0
 13 21  1  0
 15 16  2  0
 16 17  1  0
 17 18  1  0
 18 19  2  0
 19 20  1  0
 20 21  2  0
 20 22  1  0
 19 23  1  0
  6 24  2  0
 16 25  1  0
 22 26  1  0
 23 27  1  0
 11 28  1  0
M  END
>  <DATABASE_ID>  (1) 
DB00346

>  <DATABASE_NAME>  (1) 
drugbank

>  <SMILES>  (1) 
COC1=CC2=C(C=C1OC)C(N)=NC(=N2)N(C)CCCNC(=O)C1CCCO1

>  <INCHI_IDENTIFIER>  (1) 
InChI=1S/C19H27N5O4/c1-24(8-5-7-21-18(25)14-6-4-9-28-14)19-22-13-11-16(27-3)15(26-2)10-12(13)17(20)23-19/h10-11,14H,4-9H2,1-3H3,(H,21,25)(H2,20,22,23)

>  <INCHI_KEY>  (1) 
WNMJYKCGWZFFKR-UHFFFAOYSA-N

>  <FORMULA>  (1) 
C19H27N5O4

>  <MOLECULAR_WEIGHT>  (1) 
389.4488

>  <EXACT_MASS>  (1) 
389.206304377

>  <JCHEM_ACCEPTOR_COUNT>  (1) 
8

>  <JCHEM_ATOM_COUNT>  (1) 
55

>  <JCHEM_AVERAGE_POLARIZABILITY>  (1) 
42.7088392005799

>  <JCHEM_BIOAVAILABILITY>  (1) 
1

>  <JCHEM_DONOR_COUNT>  (1) 
2

>  <JCHEM_FORMAL_CHARGE>  (1) 
0

>  <JCHEM_GHOSE_FILTER>  (1) 
1

>  <JCHEM_IUPAC>  (1) 
N-{3-[(4-amino-6,7-dimethoxyquinazolin-2-yl)(methyl)amino]propyl}oxolane-2-carboxamide

>  <ALOGPS_LOGP>  (1) 
2.02

>  <JCHEM_LOGP>  (1) 
1.1875362089999997

>  <ALOGPS_LOGS>  (1) 
-3.14

>  <JCHEM_MDDR_LIKE_RULE>  (1) 
1

>  <JCHEM_NUMBER_OF_RINGS>  (1) 
3

>  <JCHEM_PHYSIOLOGICAL_CHARGE>  (1) 
1

>  <JCHEM_PKA_STRONGEST_ACIDIC>  (1) 
14.63969532465731

>  <JCHEM_PKA_STRONGEST_BASIC>  (1) 
7.303379443951849

>  <JCHEM_POLAR_SURFACE_AREA>  (1) 
111.83000000000001

>  <JCHEM_REFRACTIVITY>  (1) 
107.11410000000001

>  <JCHEM_ROTATABLE_BOND_COUNT>  (1) 
8

>  <JCHEM_RULE_OF_FIVE>  (1) 
1

>  <ALOGPS_SOLUBILITY>  (1) 
2.82e-01 g/l

>  <JCHEM_TRADITIONAL_IUPAC>  (1) 
alfuzosin

>  <JCHEM_VEBER_RULE>  (1) 
0

>  <DRUGBANK_ID>  (1) 
DB00346

>  <SECONDARY_ACCESSION_NUMBERS>  (1) 
APRD00490

>  <DRUG_GROUPS>  (1) 
approved

>  <GENERIC_NAME>  (1) 
Alfuzosin

>  <SYNONYMS>  (1) 
(±)-N-[3-[(4-amino-6,7-dimethoxy-2-quinazolinyl)methylamino]propyl]tetrahydro-2-furamide; Alfuzosin; Alfuzosina; Alfuzosine; Alfuzosinum; N-[3-[(4-amino-6,7-dimethoxy-quinazolin-2-yl)- methyl-amino]propyl] tetrahydrofuran- 2-carboxamide

>  <PRODUCTS>  (1) 
Alfuzosin; Alfuzosin Hydrochloride; Alfuzosin Hydrochloride ER; Alfuzosin Hydrochloride extended release; Alfuzosin hydrochloride; Apo-alfuzosin; Auro-alfuzosin; Sandoz Alfuzosin; Teva-alfuzosin Pr; Uroxatral; Xatral

>  <INTERNATIONAL_BRANDS>  (1) 
Alcinin; Alfasin XR; Alfetim; Alfoo; Alfu; Alfuran; Alfusozina; Flotral; Fual; Profuzo; Rantral; Uriten; Xantral; Xelflo; Zatral

>  <SALTS>  (1) 
Alfuzosin hydrochloride

$$$$
