
     RDKit          2D

 22 23  0  0  0  0  0  0  0  0999 V2000
   -0.7145   -2.8875    0.0000 C   0  0  0  0  0  0  0  0  0  0  0  0
    0.0000   -2.4750    0.0000 C   0  0  0  0  0  0  0  0  0  0  0  0
    0.0000   -1.6500    0.0000 C   0  0  0  0  0  0  0  0  0  0  0  0
   -0.7145   -1.2375    0.0000 C   0  0  0  0  0  0  0  0  0  0  0  0
    0.7145   -1.2375    0.0000 C   0  0  0  0  0  0  0  0  0  0  0  0
    1.4289   -1.6500    0.0000 C   0  0  0  0  0  0  0  0  0  0  0  0
    2.1434   -1.2375    0.0000 O   0  0  0  0  0  0  0  0  0  0  0  0
    1.4289   -2.4750    0.0000 O   0  0  0  0  0  0  0  0  0  0  0  0
    2.1434   -2.8875    0.0000 C   0  0  0  0  0  0  0  0  0  0  0  0
    2.8579   -2.4750    0.0000 C   0  0  0  0  0  0  0  0  0  0  0  0
    3.5724   -2.8875    0.0000 C   0  0  0  0  0  0  0  0  0  0  0  0
    3.5724   -3.7125    0.0000 N   0  0  0  0  0  0  0  0  0  0  0  0
    4.3848   -3.5692    0.0000 C   0  0  0  0  0  0  0  0  0  0  0  0
    3.8545   -4.4877    0.0000 C   0  0  0  0  0  0  0  0  0  0  0  0
    2.8579   -4.1250    0.0000 C   0  0  0  0  0  0  0  0  0  0  0  0
    2.1434   -3.7125    0.0000 C   0  0  0  0  0  0  0  0  0  0  0  0
    0.7145   -0.4125    0.0000 C   0  0  0  0  0  0  0  0  0  0  0  0
    0.0000    0.0000    0.0000 C   0  0  0  0  0  0  0  0  0  0  0  0
    0.0000    0.8250    0.0000 C   0  0  0  0  0  0  0  0  0  0  0  0
    0.7145    1.2375    0.0000 C   0  0  0  0  0  0  0  0  0  0  0  0
    1.4289    0.8250    0.0000 C   0  0  0  0  0  0  0  0  0  0  0  0
    1.4289   -0.0000    0.0000 C   0  0  0  0  0  0  0  0  0  0  0  0
  1  2  1  0
  2  3  1  0
  3  4  1  0
  3  5  1  0
  5  6  1  0
  6  7  2  0
  6  8  1  0
  8  9  1  0
  9 10  1  0
 10 11  1  0
 11 12  1  0
 12 13  1  0
 12 14  1  0
 12 15  1  0
 15 16  1  0
  9 16  1  0
  5 17  1  0
 17 18  2  0
 18 19  1  0
 19 20  2  0
 20 21  1  0
 21 22  2  0
 17 22  1  0
M  CHG  1  12   1
M  END
>  <DATABASE_ID>  (1) 
DB19383

>  <DATABASE_NAME>  (1) 
drugbank

>  <SMILES>  (1) 
CCC(C)C(C(=O)OC1CC[N+](C)(C)CC1)C1=CC=CC=C1

>  <INCHI_IDENTIFIER>  (1) 
InChI=1S/C19H30NO2/c1-5-15(2)18(16-9-7-6-8-10-16)19(21)22-17-11-13-20(3,4)14-12-17/h6-10,15,17-18H,5,11-14H2,1-4H3/q+1

>  <INCHI_KEY>  (1) 
WSWDKMFWJOALEW-UHFFFAOYSA-N

>  <FORMULA>  (1) 
C19H30NO2

>  <MOLECULAR_WEIGHT>  (1) 
304.453

>  <EXACT_MASS>  (1) 
304.22710563

>  <DRUGBANK_ID>  (1) 
DB19383

>  <DRUG_GROUPS>  (1) 
approved; withdrawn

>  <GENERIC_NAME>  (1) 
Pentapiperium

>  <SYNONYMS>  (1) 
Pentapiperium; Pentapiperium cation; Pentapiperium ion; Piperidinium, 1,1-dimethyl-4-((3-methyl-1-oxo-2-phenylpentyl)oxy)-

>  <SALTS>  (1) 
Pentapiperium hydrogen sulfate; Pentapiperium methylsulfate

$$$$
