
     RDKit          2D

  6  4  0  0  0  0  0  0  0  0999 V2000
   -1.5307    0.0000    0.0000 Ni  0  0  0  0  0 15  0  0  0  0  0  0
    0.7057    0.0000    0.0000 S   0  0  0  0  0  0  0  0  0  0  0  0
    0.7057   -0.8250    0.0000 O   0  0  0  0  0  0  0  0  0  0  0  0
   -0.1192    0.0000    0.0000 O   0  0  0  0  0  0  0  0  0  0  0  0
    1.5307    0.0000    0.0000 O   0  0  0  0  0  0  0  0  0  0  0  0
    0.7057    0.8250    0.0000 O   0  0  0  0  0  0  0  0  0  0  0  0
  3  2  2  0
  4  2  1  0
  5  2  1  0
  6  2  2  0
M  CHG  3   1   2   4  -1   5  -1
M  END
>  <DATABASE_ID>  (1) 
DB14180

>  <DATABASE_NAME>  (1) 
drugbank

>  <SMILES>  (1) 
[Ni++].[O-]S([O-])(=O)=O

>  <INCHI_IDENTIFIER>  (1) 
InChI=1S/Ni.H2O4S/c;1-5(2,3)4/h;(H2,1,2,3,4)/q+2;/p-2

>  <INCHI_KEY>  (1) 
LGQLOGILCSXPEA-UHFFFAOYSA-L

>  <FORMULA>  (1) 
NiO4S

>  <MOLECULAR_WEIGHT>  (1) 
154.756

>  <EXACT_MASS>  (1) 
153.8870771

>  <JCHEM_ACCEPTOR_COUNT>  (1) 
4

>  <JCHEM_ATOM_COUNT>  (1) 
6

>  <JCHEM_AVERAGE_POLARIZABILITY>  (1) 
5.805309098655745

>  <JCHEM_BIOAVAILABILITY>  (1) 
1

>  <JCHEM_DONOR_COUNT>  (1) 
0

>  <JCHEM_FORMAL_CHARGE>  (1) 
0

>  <JCHEM_GHOSE_FILTER>  (1) 
0

>  <JCHEM_IUPAC>  (1) 
nickel(2+) sulfate

>  <JCHEM_LOGP>  (1) 
-0.8415520233333333

>  <JCHEM_MDDR_LIKE_RULE>  (1) 
0

>  <JCHEM_NUMBER_OF_RINGS>  (1) 
0

>  <JCHEM_PHYSIOLOGICAL_CHARGE>  (1) 
-2

>  <JCHEM_PKA>  (1) 
1.8964254257138693

>  <JCHEM_PKA_STRONGEST_ACIDIC>  (1) 
-3.034349054191991

>  <JCHEM_POLAR_SURFACE_AREA>  (1) 
80.25999999999999

>  <JCHEM_REFRACTIVITY>  (1) 
11.5274

>  <JCHEM_ROTATABLE_BOND_COUNT>  (1) 
0

>  <JCHEM_RULE_OF_FIVE>  (1) 
1

>  <JCHEM_TRADITIONAL_IUPAC>  (1) 
nickel sulfate

>  <JCHEM_VEBER_RULE>  (1) 
0

>  <DRUGBANK_ID>  (1) 
DB14180

>  <DRUG_GROUPS>  (1) 
approved

>  <GENERIC_NAME>  (1) 
Nickel sulfate

>  <SYNONYMS>  (1) 
Nickel sulfate; Nickel sulfate(1:1); Nickel sulphate; nickel(II) sulfate

>  <PRODUCTS>  (1) 
High Potency Multivitamins & Minerals Caplets; Milltrium Senior Vitamin and Mineral Supplement; Multivitamins and Minerals Tablets; Spectrum Performa Multivitamins and Minerals Tablets; T.R.U.E. Test Thin-Layer Rapid Use Patch Test

>  <SALTS>  (1) 
Nickel sulfate hexahydrate

$$$$
