
     RDKit          2D

 22 22  0  0  0  0  0  0  0  0999 V2000
    5.1295    1.3406    0.0000 O   0  0  0  0  0  0  0  0  0  0  0  0
    0.8426    0.5156    0.0000 O   0  0  0  0  0  0  0  0  0  0  0  0
    0.8426   -1.1343    0.0000 O   0  0  0  0  0  0  0  0  0  0  0  0
    4.4150    0.1030    0.0000 N   0  0  0  0  0  0  0  0  0  0  0  0
    7.2729    0.1031    0.0000 C   0  0  0  0  0  0  0  0  0  0  0  0
    6.5585    0.5156    0.0000 C   0  0  0  0  0  0  0  0  0  0  0  0
    7.9874    0.5156    0.0000 C   0  0  0  0  0  0  0  0  0  0  0  0
    5.8440    0.1031    0.0000 C   0  0  0  0  0  0  0  0  0  0  0  0
   10.1309    0.1031    0.0000 C   0  0  0  0  0  0  0  0  0  0  0  0
    8.7020    0.1030    0.0000 C   0  0  0  0  0  0  0  0  0  0  0  0
    5.1296    0.5156    0.0000 C   0  0  0  0  0  0  0  0  0  0  0  0
    9.4165    0.5156    0.0000 C   0  0  0  0  0  0  0  0  0  0  0  0
    3.7006    0.5155    0.0000 C   0  0  0  0  0  0  0  0  0  0  0  0
    2.9861    0.1031    0.0000 C   0  0  0  0  0  0  0  0  0  0  0  0
   10.8454    0.5156    0.0000 C   0  0  0  0  0  0  0  0  0  0  0  0
   10.1309   -0.7219    0.0000 C   0  0  0  0  0  0  0  0  0  0  0  0
    2.2716    0.5156    0.0000 C   0  0  0  0  0  0  0  0  0  0  0  0
    2.9861   -0.7218    0.0000 C   0  0  0  0  0  0  0  0  0  0  0  0
    1.5571    0.1031    0.0000 C   0  0  0  0  0  0  0  0  0  0  0  0
    2.2716   -1.1344    0.0000 C   0  0  0  0  0  0  0  0  0  0  0  0
    1.5571   -0.7218    0.0000 C   0  0  0  0  0  0  0  0  0  0  0  0
    0.8426    1.3406    0.0000 C   0  0  0  0  0  0  0  0  0  0  0  0
  1 11  2  0
  2 19  1  0
  2 22  1  0
  3 21  1  0
  4 11  1  0
  4 13  1  0
  5  6  1  0
  5  7  1  0
  6  8  1  0
  7 10  1  0
  8 11  1  0
  9 12  1  0
  9 15  1  0
  9 16  1  0
 10 12  2  0
 13 14  1  0
 14 17  2  0
 14 18  1  0
 17 19  1  0
 18 20  2  0
 19 21  2  0
 20 21  1  0
M  END
>  <DATABASE_ID>  (1) 
DB06774

>  <DATABASE_NAME>  (1) 
drugbank

>  <SMILES>  (1) 
COC1=C(O)C=CC(CNC(=O)CCCC\C=C\C(C)C)=C1

>  <INCHI_IDENTIFIER>  (1) 
InChI=1S/C18H27NO3/c1-14(2)8-6-4-5-7-9-18(21)19-13-15-10-11-16(20)17(12-15)22-3/h6,8,10-12,14,20H,4-5,7,9,13H2,1-3H3,(H,19,21)/b8-6+

>  <INCHI_KEY>  (1) 
YKPUWZUDDOIDPM-SOFGYWHQSA-N

>  <FORMULA>  (1) 
C18H27NO3

>  <MOLECULAR_WEIGHT>  (1) 
305.4119

>  <EXACT_MASS>  (1) 
305.199093735

>  <JCHEM_ACCEPTOR_COUNT>  (1) 
3

>  <JCHEM_ATOM_COUNT>  (1) 
49

>  <JCHEM_AVERAGE_NEUTRAL_MICROSPECIES_CHARGE>  (1) 
0.03661916642767838

>  <JCHEM_AVERAGE_POLARIZABILITY>  (1) 
36.32071594844231

>  <JCHEM_BIOAVAILABILITY>  (1) 
1

>  <JCHEM_DONOR_COUNT>  (1) 
2

>  <JCHEM_FORMAL_CHARGE>  (1) 
0

>  <JCHEM_GHOSE_FILTER>  (1) 
1

>  <JCHEM_IUPAC>  (1) 
(6E)-N-[(4-hydroxy-3-methoxyphenyl)methyl]-8-methylnon-6-enamide

>  <JCHEM_LOGP>  (1) 
3.7496695443333334

>  <JCHEM_MDDR_LIKE_RULE>  (1) 
0

>  <JCHEM_NEUTRAL_CHARGE>  (1) 
0

>  <JCHEM_NUMBER_OF_RINGS>  (1) 
1

>  <JCHEM_PHYSIOLOGICAL_CHARGE>  (1) 
0

>  <JCHEM_PKA>  (1) 
15.950140339611808

>  <JCHEM_PKA_STRONGEST_ACIDIC>  (1) 
9.92869171622554

>  <JCHEM_PKA_STRONGEST_BASIC>  (1) 
-1.4201007817371583

>  <JCHEM_POLAR_SURFACE_AREA>  (1) 
58.56

>  <JCHEM_REFRACTIVITY>  (1) 
90.31740000000002

>  <JCHEM_ROTATABLE_BOND_COUNT>  (1) 
9

>  <JCHEM_RULE_OF_FIVE>  (1) 
1

>  <JCHEM_TRADITIONAL_IUPAC>  (1) 
capsaicin

>  <JCHEM_VEBER_RULE>  (1) 
0

>  <DRUGBANK_ID>  (1) 
DB06774

>  <SECONDARY_ACCESSION_NUMBERS>  (1) 
DB05674; DB05318

>  <DRUG_GROUPS>  (1) 
approved; investigational

>  <GENERIC_NAME>  (1) 
Capsaicin

>  <SYNONYMS>  (1) 
(E)-8-Methyl-N-vanillyl-6-nonenamide; Capsaicin; Capsaicina; Isodecenoic acid vanillylamide; trans-8-Methyl-N-vanillyl-6-nonenamide

>  <PRODUCTS>  (1) 
0.025% Capsaicin Pain relief Patch; 1st Medxpatch With Lidocaine 4%; 1st Medxpatch With Lidocaine 4%-rx; 2-Count HEAT PATCHES; 3% Menthol plus 0.083% Capsaicin Pain Relief Patch; A2a Arthritis; AVON HeXashield Arthritis Pain Relief Cream Capsaisin; Adazin; Aflexeryl-MC; Ageranium Patch; Alegenix Biofrequency Chip; Aleveer Patch; Alivio; Alivio Medicated Pain; Allevess; Ameri Patch; AmeriPatch; AnodyneRx; Anodynz; Anodynz Biofrequency Chip; Antiphlogistine Rub A-535 Capsaicin Gel; Antiphlogistine Rub A-535 Capsaicin Liquid; Apanol Linimento Obrero; Arth Arrest; Arth RX Topical Analgesic; Arthmed Topical Analgesic; Arthricare for Women Extra Moisturizing; Arthricare for Women Multi-action; Arthricare for Women Quick Drying; Arthritazin Pain Relieving; Arthritazin Pain Relieving EZ; Arthritic Pain Relief; Arthritis Extra Strength Roll-ON Lotion; Arthritis Pain Relief; Arthritis Pain Reliever; Arthur Itis Cream; Aspercreme Warming; Aspercreme Warming No Mess; Aspercreme Warming Patch; Assured Pain Relief Hot Menthol; Assured Pain Relief Hot Patch; Astrapharm Chilli Brand; Astrapharm Chilli Brand External Medicated; Astronic; AthletesGel; Atomic Balm; Australian Dream Power 4 Muscle and Joint Pain Relief Cream; Awaye; BIO-MEGA Heat Therapy; BLUE SPRING Foot and Leg Comfort Cream with Pain Relief; BRONSON SOOTHE Pain Relief; Benejoint; Better Nature Pain Relief BalmX; Better Nature Pain Relief Cream; Bio-Sorb; BioMega; BioMega Heat Pain Therapy; Bioaches; Blue Ice Pain Relieving; Born Again Super Pain Relieving Lotion; CANNABIN PLUS Warming Pain Relief; CMC Pain Relieving; CMX Topical Pain; CVS Capsaicin; CVS Capsaicin arthritis pain relief; CVS Medicated Heat 1 ct; CVS Roll-On; Cajun Hot Ice Muscle and Joint Pain Rub; Campo pharma Muscle hot; Cannavera Pain Relief; Capment; CapsFenac Pak; Capsaicin; Capsaicin 0.075 Percent; Capsaicin 0.1 Percent; Capsaicin Arthritis Pain Relief Cream; Capsaicin Cream; Capsaicin Cream 0.025%; Capsaicin External Analgesic; Capsaicin Forte Cream; Capsaicin HP Arthritis Pain Relief; Capsaicin Heat; Capsaicin Heat Patches Back and Large Areas; Capsaicin Heat Patches Pain Relief; Capsaicin Hot Patches; Capsaicin Mild Cream; Capsaicin No-Fuss Applicator; Capsaicin Pain Relief; Capsaicin Regular Cream; Capsaicin Topical Analgesic; Capsicum Patch; Capsiderm; Capsimide; Capsinac; Capsodan Cream; Captracin; Capxib; Capzasin HP Arthritis Pain Relief; Capzasin No Mess Applicator; Capzasin P Arthritis Pain Relief; Capzasin Quick Relief; Capzasin-P Creme - 0.025%; Capzix; CareALL Arthritis and Muscle; CareOne Arthritis Pain Relief; Castiva Warming; Chill Pain Away; Complete hemp; Compression Sock; CopperFixx; Coralite Medicated Heat; Coralite Muscle and Joint Pain Relief; Coralite Pain Relief; Coralite Pain Relief Hot; Coralite Topical Analgesic Capsaicin Heat; Corisin Arthritis Pain Relief; Cvs Capsaicin; CyclobenzaprinePax; DCH Arthritis Pain Relief Roll-On; DFS 75mg DR/MS 25%/MENTH 6%/CAP 0.025% PAK; DICLAREAL TOPICAL kit; DINGTAI PHARMATopical Analgesic; Dendracin Neurodendraxcin; Dfs 1.5%/ms 25%/menth 6%/cap 0.025% Pak; DicloHeal-60; Diclofex DC; Diclopak; Diclosaicin; Diclosiacin; Diclovix CM; Dolor-parche With Lidocaine-RX; Doloracin Rx; Doloracin/l Rx With Lidocaine; Douleurin Topical Pain Relief; Dr Demand Relief Pain Relief; Dr Iyers MyoRub; Dr. Harveys Herbal Motion Pain Formula; Dr. OH BALM; Dr.'s Cream; Dusel Warm Arthritis Dead Sea Salt Therapy; Dyninex; EMU THERAPY Red Hot Pepper Pain Relief Cream; Eagle; Earths Care Arthritis; Emu Essentials Brand Pain Relieving; Equate Capsaicin Pain Relieving; Equi-block Dt Formula; Exoten-C; External Analgesic; Extra Strength Pain Reliever; FYZICAL SPORTS Pain Relief; FYZICAL SPORTS Pain Relief 1-COOL; FYZICAL SPORTS Pain Relief 2 MILD; Family Care Arthritis Pain Relief; Family Care Thera Flex Pain; Fast Arthritis Aid Pain Relieving; Fatazen Sweat Enhance Hot; Fesi; Flanax; Flanax Liniment; Flanax Liniment Unit Dose Display; Flex-OL; FlexePax; Flexin; Flexipak; FlexxSonic Pain Relief; Fors Pain Relief; FourPainRX; Frankie Avalons ZERO PAIN Original Formula Roll-On Maximum Strength PAIN RELIEVER; Frankie Avalons Zero Pain Roll On; Gellert Joint Care; Genorthix Pain Relieving Roll On; Glacierix; Good Neighbor Capsaicin Heat Patch for Back; Good Neighbor Pharmacy Arthritis Pain Relief; Good Neighbor Pharmacy Capsaicin; Guardania Pain; HURT BLOCKER PRO Pain Relief; Heet Liniment Liq; Hempvana Ultra Strength Pain Relief Cream - Deep Heat; Hong Hoa Pain Relieving; Hot Pain Relief; Hot Pain Relieving; Hot Spot Point Relief; Hot spot point relief; Hurt Blocker Pro; IRxAmigra; IRxMyoRub; Iclofenac CP; Inavix; InstaSoothe Pain Relief; Invisible Pain; Joint Maintenance Compliance Kit; Jupiter Pain Patch; K2c; KASEHA Pain Relieving Gel; Kanjo Natural Pain relief oil; Kapsin; Kapsin External Analgesic; Kapzin DC; Kentwool SensationWool with Nufabrx; Kerasal NeuroCream; Kessler Family Wellness; Kool Heat Pain Therapy; LABOFLEX Cool and Hot Menthol 1.25 percent Capsaicin 0.025 percent; LBri Super Aloe Stop The Pain; LCDO. ORLANDO RIVERA ARTHRITIS Topical Analgesic; LONOL Forte Gel; LaBella Linimento Obrero; LaboFlex Cool and Hot Menthol 1.25 percent Capsaicin 0.025 percent; Leader Capsaicin; Leader Capsaicin Pain Relief Cream; Levatio Patch; LexiCaps; Lido-RX 4.1; LidoPro; Lidopro; Limencin; Littles All Natural Arthritic Pain Relief; LivRelief Pain Relief; MINTED LEAF Heat Therapy Relief Roll On; MINTED LEAF Heat Therapy Roll-On with Capsaicin and CBD; MaC Patch; Mac; Med O-3 Bio-; MedWorx; Medi-derm / L With Lidocaine; Medi-derm / L With Lidocaine Rx; Medi-derm Rx; Medi-derm Topical Pain Relief; Medi-patch With Lidocaine; Medi-patch With Lidocaine Rx; Medi-sulting Topical Pain Relief; MediRelief Hot; Medicated Compression Sock; Medicated Heat; Medicated Pain Relief Hot; Medrox; Medrox-Rx; Mega Patch; Megrix; Megrix OTC; Meijer Capsaicin; Melt Pain Away; MenCaps; Mendex; Menthacin - Cream; Menthacin Lotion; Menthocin Patch with Lidocaine; Menthocin Patch with Lidocaine - Strong; Menthol 4.5% Capsaicin 0.0225%; Menthol, Capsaicin; Mentholatum Ironman; Menthozen; Menthozen Cream; Menthozen Hydrogel; Menthozen Hydrogel Patch; Migryl; Migryl Biofrequency Chip; Minted Leaf Heat Therapy Relief Roll-On; Miracle Plus Neck and Shoulder Pain Relief; Miracle Plus Overnight Pain Relieving; Moisturizing Glucosamine Brand; Moor Balm - Crm; Muscular Balm; My Omega Heat Therapy; N-LABS SOLAR MAX Topical Analgesic; NaproPax; NaproxenPax; Neuriterx; Neuriterx 0.05%; Neuritrx; Neurodexx; Neuvaxin Patch; New Terocin; Nexalgia; NobleAid CapsAid; Nopiate Topical Pain Relief; NuDiclo SoluPak; NuDiclo TabPak; NuDroxiPAK; NuDroxiPAK DSDR-50; NuDroxiPAK DSDR-75; NuDroxiPAK E-400; NuDroxiPAK I-800; NuDroxiPAK M-15; NuDroxiPAK N-500; NuDroxicin; NuDroxicin pain relief Roll-On; Nufabrx Ankle Sleeve; Nufabrx Ankle Sock; Nufabrx Arm Sleeve; Nufabrx Back Wrap; Nufabrx Calf Sleeve; Nufabrx Compression Sock; Nufabrx Diabetic Sock; Nufabrx Foot/Ankle Sleeve; Nufabrx Grey Polka Dot Sock; Nufabrx Hand/Wrist Sleeve; Nufabrx Knee Sleeve; Nufabrx Lower Leg Sleeve; Nufabrx Lower Leg Sleeve M/L; Nufabrx Lower Leg Sleeve XL/XXL; Nufabrx Lower Leg Sleeve XS/S; Nufabrx Medicine Infused Ankle Sleeve; Nufabrx Medicine Infused Socks; Nufabrx Neck Wrap; Nufabrx Wrist Sleeve; Nuvira; Nuvira Patch; Offense Player Arthritis Pain; Offense Player Sports; Omega 3; Omega 3 Heat Therapy; Oprava; Outdoor Hands; Overtime; Overtime-HMP; Overtime-X; Overtime-hmp; Pain Away; Pain Relief; Pain Relief Cream Extra Strength; Pain Relief Hot Patch; Pain Relief Patch; Pain Relief Roll On; Pain Relieving; Pain Relieving Gel-Patch; Pain Relieving Roll-On; PainBloc; PainBloc24; PainKoolers; PainKoolers Topical Analgesic; PainKoolers Topical Analgesic Patch; PainMD Max; Painazin CP; Pallerix; Pallerix OTC BIOfrequency Chip; Paraid Hot Capsicum; Parche Leon; Parche Leon Milagroso; Parche Leon Milagroso Dual Action; Penetrex(r) Arthritis Pain Relief; Pennsaicin; Perform Atomic Heat; Power Pain Relief Stick; Preferred Plus Arthritis Cream; Pure Pain Relief; Pure Relief; Pure Relief Penetrating Pain Relief; PureKana; QC Arthritis Pain Relief; Qroxin Patch; Qutenza; RETADOLOR Pain Relief; Raging Kakapo Pain Relieve; Red Hot; Red hot; Releevia; Releevia MC; Reliaderm; Reliever; Relyyt; Rematex; Remaxazon External Patch; Reme D; Renovo; Renovo Lido5; Revlex Arthritis Pain Relief; Rezil; Rite Aid Capsicum Hot; Rock Sauce; RockSauce FIERY HOT PAIN RELIEF; Rocksauce Fire; Rocksauce Ice; Rotex; Rub A535 Capsaicin; Rugby Arthritis Pain Relieving Topical Analgesic; Rugby Capsaicin Cream; Rugby Capsaicin External Analgesic; Satogesic Hot; Satohap Cool and Hot Pads; Screamin Hot Toast; Sherman and Clark Pain Relieving; Silvera Pain Relief Patch; Simanix; Sinelee; Sinsinpas Hot; Sinsinpas Hot Large; SmartRx Gaba-V Kit; Solaice; Solstice Capsaicin Patch Hot; Soothanol X2; Soothe; Soothee Patch; SprayPain Away; SumaChip; Sure Relief SR Relief; Sure Result DSS Premium Pak; Sure Result SR Relief; Synovium Pain Relieving Gel; Terocin; Terphouse; Theragen; Theragen HP; Therapatch Warm; Therapy Pain; Tianhe Gutong Tiegao; Tianhe Gutong Tiegao (in Polyisobutylene Carrier); Tianhe Zhuifeng Gao; Topical Pain Relief; Topical Pain Relief Rx; Toplast Cool and Hot Menthol 1.25percent plus Capsaicin 0.025percent; Toplast Cool and Hot Menthol 4percent plus Capsaicin 0.025percent; Toplast Cool and Hot Menthol 5percent plus Capsaicin 0.025percent; Toplast Hot Capsaicin 0.025percent; Trans-D; Transanosil; Transderm-IQ; Transderm-iQ; Triple Action Arthritis; Trubrexa; Trubrexa Patch ER; True Pain Relief Plus; Ultimate Topical Pain Relief Patch; Ultra Strength Pain Relief; Ultra Therapy Pain Relief; Ultracin; VANTELIN HOT PAIN RELIEVING Gel Patch; VANTELIN HOT PAIN RELIEVING Gel Patch Large; VitaCin; Walgreens Arthritis Pain Relief Capsaicin Analgesic; Walgreens Capsaicin Hot; Wasabi Rub; Weh-Weh Natural Pain relief oil; WellPatch Capsaicin Pain Relief; WellPatch Warming Pain Relief; Wellness Products J-FLEX; Wellness Products VictoRx; Xoten-C; Xyphex Biofrequency Chip; Yunnan Baiyao Arthritis Pain Relief; ZENSEZONE Arthmed Temporary Pain Relief Cream; Zang Hong Hua Pain Relieving; Ziclocin; Ziclopro; Ziks Arthritis Pain Relief; Zostrix Diabetic Joint and Arthritis Pain Relief; Zostrix Foot Pain Relief; Zostrix Foot Pain Relief Maximum Strength; Zostrix High Potency Foot Pain Relief; Zostrix Hot and Cold Therapy System; Zostrix Hp; Zostrix Joint and Arthritis Pain Relief; Zostrix Original Strength; bB Medicated Pain Relieving Oil; beeRX Muscle and Joint Pain Relief

>  <INTERNATIONAL_BRANDS>  (1) 
Zostrix

$$$$
