644073
     RDKit          2D

 34 40  0  0  1  0  0  0  0  0999 V2000
    4.3078   -2.2511    0.0000 O   0  0  0  0  0  0  0  0  0  0  0  0
    6.3944   -2.4225    0.0000 O   0  0  0  0  0  0  0  0  0  0  0  0
    7.2344   -0.1130    0.0000 O   0  0  0  0  0  0  0  0  0  0  0  0
    2.2396   -2.4225    0.0000 O   0  0  0  0  0  0  0  0  0  0  0  0
    5.1420    1.1756    0.0000 N   0  0  0  0  0  0  0  0  0  0  0  0
    5.1420   -0.2533    0.0000 C   0  0  0  0  0  0  0  0  0  0  0  0
    4.7295   -0.9678    0.0000 C   0  0  0  0  0  0  0  0  0  0  0  0
    5.9670   -1.6823    0.0000 C   0  0  0  0  0  0  0  0  0  0  0  0
    5.1420   -1.6823    0.0000 C   0  0  0  0  0  0  0  0  0  0  0  0
    6.3796   -0.9678    0.0000 C   0  0  0  0  0  0  0  0  0  0  0  0
    5.9670   -0.2533    0.0000 C   0  0  0  0  0  0  0  0  0  0  0  0
    4.7295    0.4612    0.0000 C   0  0  0  0  0  0  0  0  0  0  0  0
    5.7378   -0.6378    0.0000 C   0  0  0  0  0  0  0  0  0  0  0  0
    5.4262   -1.2611    0.0000 C   0  0  0  0  0  0  0  0  0  0  0  0
    4.3171   -0.2533    0.0000 C   0  0  0  0  0  0  0  0  0  0  0  0
    3.9045   -0.9678    0.0000 C   0  0  0  0  0  0  0  0  0  0  0  0
    3.9045    0.4612    0.0000 C   0  0  0  0  0  0  0  0  0  0  0  0
    7.2344   -0.9678    0.0000 C   0  0  0  0  0  0  0  0  0  0  0  0
    4.3078    1.3238    0.0000 C   0  0  0  0  0  0  0  0  0  0  0  0
    3.4920   -0.2533    0.0000 C   0  0  0  0  0  0  0  0  0  0  0  0
    3.4920   -1.6823    0.0000 C   0  0  0  0  0  0  0  0  0  0  0  0
    5.9170    1.5364    0.0000 C   0  0  0  0  0  0  0  0  0  0  0  0
    8.0892   -0.9678    0.0000 C   0  0  0  0  0  0  0  0  0  0  0  0
    5.9921    2.3878    0.0000 C   0  0  0  0  0  0  0  0  0  0  0  0
    7.2344   -1.8226    0.0000 C   0  0  0  0  0  0  0  0  0  0  0  0
    2.6670   -0.2533    0.0000 C   0  0  0  0  0  0  0  0  0  0  0  0
    2.6670   -1.6823    0.0000 C   0  0  0  0  0  0  0  0  0  0  0  0
    5.6313    3.1628    0.0000 C   0  0  0  0  0  0  0  0  0  0  0  0
    6.4829    3.0878    0.0000 C   0  0  0  0  0  0  0  0  0  0  0  0
    5.9670   -3.1628    0.0000 C   0  0  0  0  0  0  0  0  0  0  0  0
    2.2545   -0.9678    0.0000 C   0  0  0  0  0  0  0  0  0  0  0  0
    8.9440   -0.9678    0.0000 C   0  0  0  0  0  0  0  0  0  0  0  0
    8.0892   -1.8226    0.0000 C   0  0  0  0  0  0  0  0  0  0  0  0
    8.0892   -0.1130    0.0000 C   0  0  0  0  0  0  0  0  0  0  0  0
  9  1  1  6
  1 21  1  0
  8  2  1  6
  2 30  1  0
 18  3  1  0
  4 27  1  0
 12  5  1  0
  5 19  1  0
  5 22  1  0
  6  7  1  0
  6 11  1  1
  6 12  1  0
  6 13  1  0
  7  9  1  0
  7 15  1  1
  7 16  1  0
  8  9  1  0
  8 10  1  0
  8 14  1  0
 10 11  1  6
 10 18  1  0
 12 17  1  1
 13 14  1  0
 15 19  1  0
 16 20  2  0
 16 21  1  0
 17 20  1  0
 18 23  1  0
 18 25  1  1
 20 26  1  0
 21 27  2  0
 22 24  1  0
 23 32  1  0
 23 33  1  0
 23 34  1  0
 24 28  1  0
 24 29  1  0
 26 31  2  0
 27 31  1  0
 28 29  1  0
M  END
>  <DATABASE_ID>  (1) 
DB00921

>  <DATABASE_NAME>  (1) 
drugbank

>  <SMILES>  (1) 
CO[C@]12CC[C@@]3(C[C@@H]1[C@](C)(O)C(C)(C)C)[C@H]1CC4=C5C(O[C@@H]2[C@@]35CCN1CC1CC1)=C(O)C=C4

>  <INCHI_IDENTIFIER>  (1) 
InChI=1S/C29H41NO4/c1-25(2,3)26(4,32)20-15-27-10-11-29(20,33-5)24-28(27)12-13-30(16-17-6-7-17)21(27)14-18-8-9-19(31)23(34-24)22(18)28/h8-9,17,20-21,24,31-32H,6-7,10-16H2,1-5H3/t20-,21-,24-,26+,27-,28+,29-/m1/s1

>  <INCHI_KEY>  (1) 
RMRJXGBAOAMLHD-IHFGGWKQSA-N

>  <FORMULA>  (1) 
C29H41NO4

>  <MOLECULAR_WEIGHT>  (1) 
467.6401

>  <EXACT_MASS>  (1) 
467.303558805

>  <JCHEM_ACCEPTOR_COUNT>  (1) 
5

>  <JCHEM_ATOM_COUNT>  (1) 
75

>  <JCHEM_AVERAGE_NEUTRAL_MICROSPECIES_CHARGE>  (1) 
0.9970019099331584

>  <JCHEM_AVERAGE_POLARIZABILITY>  (1) 
53.03006633487111

>  <JCHEM_BIOAVAILABILITY>  (1) 
1

>  <JCHEM_DONOR_COUNT>  (1) 
2

>  <JCHEM_FORMAL_CHARGE>  (1) 
0

>  <JCHEM_GHOSE_FILTER>  (1) 
0

>  <JCHEM_IUPAC>  (1) 
(1S,2R,6S,14R,15R,16R)-3-(cyclopropylmethyl)-16-[(2S)-2-hydroxy-3,3-dimethylbutan-2-yl]-15-methoxy-13-oxa-3-azahexacyclo[13.2.2.1^{2,8}.0^{1,6}.0^{6,14}.0^{7,12}]icosa-7,9,11-trien-11-ol

>  <ALOGPS_LOGP>  (1) 
4.53

>  <JCHEM_LOGP>  (1) 
3.5498807580676766

>  <ALOGPS_LOGS>  (1) 
-4.44

>  <JCHEM_MDDR_LIKE_RULE>  (1) 
0

>  <JCHEM_NEUTRAL_CHARGE>  (1) 
1

>  <JCHEM_NUMBER_OF_RINGS>  (1) 
7

>  <JCHEM_PHYSIOLOGICAL_CHARGE>  (1) 
1

>  <JCHEM_PKA>  (1) 
14.298024374194794

>  <JCHEM_PKA_STRONGEST_ACIDIC>  (1) 
10.415402339767466

>  <JCHEM_PKA_STRONGEST_BASIC>  (1) 
9.631016280066325

>  <JCHEM_POLAR_SURFACE_AREA>  (1) 
62.160000000000004

>  <JCHEM_REFRACTIVITY>  (1) 
131.7623

>  <JCHEM_ROTATABLE_BOND_COUNT>  (1) 
5

>  <JCHEM_RULE_OF_FIVE>  (1) 
1

>  <ALOGPS_SOLUBILITY>  (1) 
1.68e-02 g/l

>  <JCHEM_TRADITIONAL_IUPAC>  (1) 
tetrahydrofolic acid

>  <JCHEM_VEBER_RULE>  (1) 
0

>  <DRUGBANK_ID>  (1) 
DB00921

>  <SECONDARY_ACCESSION_NUMBERS>  (1) 
APRD00670

>  <DRUG_GROUPS>  (1) 
approved; illicit; investigational; vet_approved

>  <GENERIC_NAME>  (1) 
Buprenorphine

>  <SYNONYMS>  (1) 
(−)-buprenorphine; 17-cyclopropylmethyl-4,5α-epoxy-7α-((S)-1-hydroxy-1,2,2-trimethylpropyl)-6-methoxy-6,14-endo-ethanomorphinan-3-ol; 2-(N-cyclopropylmethyl-4,5α-epoxy-3-hydroxy-6-methoxy-6,14-endo-ethanomorphinan-6α-yl)-3,3-dimethyl-2-butanol; 2-[3-cyclopropylmethyl-11-hydroxy-15-methoxy-(14R)-13-oxa-3-azahexacyclo[13.2.2.12,8.01,6.06,14.07,12]icosa-7,9,11-trien-16-yl]-3,3-dimethyl-2-butanol; 21-cyclopropyl-7α-[(S)-1-hydroxy-1,2,2-trimethylpropyl]-6,14-endo-ethano-6,7,8,14-tetrahydrooripavine; Buprenophine; Buprenorfina; Buprenorphine; Buprenorphinum

>  <PRODUCTS>  (1) 
BUPRENORPHINE HYDROCHLORIDE and NALOXONE HYDROCHLORIDE DIHYDRATE; Bar-buprenorphine; Belbuca; Brixadi; Bunavail; Buprenex; Buprenorphene; Buprenorphine; Buprenorphine Buccal Film; Buprenorphine HCl; Buprenorphine HCl Sl; Buprenorphine HCl and Naloxone HCl; Buprenorphine Hydrochloride; Buprenorphine Hydrochloride Sublingual; Buprenorphine Hydrochloride and Naloxone Hydrochloride Dihydrate; Buprenorphine Neuraxpharm; Buprenorphine Sublingual; Buprenorphine Sublingual C-III; Buprenorphine Transdermal System; Buprenorphine and Naloxone; Buprenorphine and Naloxone Sublingual Film; Buprenorphine hydrochloride; Butrans; Butrans 10; Butrans 15; Butrans 20; Butrans 5; Buvidal; Mylan-buprenorphine/naloxone; PMS-buprenorphine-naloxone; Probuphine; Sixmo; Sublocade; Suboxone; Subutex; Taro-buprenorphine/naloxone; Teva-buprenorphine/naloxone; Zubsolv

>  <INTERNATIONAL_BRANDS>  (1) 
Addnok; Buprel; Buprigesic; Morgesic; Norphin; Norspan; Temgesic; Tidigesic

>  <SALTS>  (1) 
Buprenorphine hydrochloride

$$$$
