
     RDKit          2D

  7  7  0  0  0  0  0  0  0  0999 V2000
    0.0000    0.0000    0.0000 O   0  0  0  0  0  0  0  0  0  0  0  0
    0.6674   -0.4849    0.0000 C   0  0  0  0  0  0  0  0  0  0  0  0
   -0.6674   -0.4849    0.0000 N   0  0  0  0  0  0  0  0  0  0  0  0
    0.4125   -1.2695    0.0000 C   0  0  0  0  0  0  0  0  0  0  0  0
    0.8974   -1.9370    0.0000 N   0  0  0  0  0  0  0  0  0  0  0  0
   -0.4125   -1.2695    0.0000 C   0  0  0  0  0  0  0  0  0  0  0  0
   -0.8974   -1.9370    0.0000 O   0  0  0  0  0  0  0  0  0  0  0  0
  1  2  1  0
  1  3  1  0
  2  4  1  0
  6  3  1  0
  4  6  1  0
  4  5  1  1
  6  7  2  0
M  END
>  <DATABASE_ID>  (1) 
DB00260

>  <DATABASE_NAME>  (1) 
drugbank

>  <SMILES>  (1) 
N[C@@H]1CONC1=O

>  <INCHI_IDENTIFIER>  (1) 
InChI=1S/C3H6N2O2/c4-2-1-7-5-3(2)6/h2H,1,4H2,(H,5,6)/t2-/m1/s1

>  <INCHI_KEY>  (1) 
DYDCUQKUCUHJBH-UWTATZPHSA-N

>  <FORMULA>  (1) 
C3H6N2O2

>  <MOLECULAR_WEIGHT>  (1) 
102.0919

>  <EXACT_MASS>  (1) 
102.042927446

>  <JCHEM_ACCEPTOR_COUNT>  (1) 
3

>  <JCHEM_ATOM_COUNT>  (1) 
13

>  <JCHEM_AVERAGE_NEUTRAL_MICROSPECIES_CHARGE>  (1) 
-0.040050484780625006

>  <JCHEM_AVERAGE_POLARIZABILITY>  (1) 
8.866828047891495

>  <JCHEM_BIOAVAILABILITY>  (1) 
1

>  <JCHEM_DONOR_COUNT>  (1) 
2

>  <JCHEM_FORMAL_CHARGE>  (1) 
0

>  <JCHEM_GHOSE_FILTER>  (1) 
0

>  <JCHEM_IUPAC>  (1) 
(4R)-4-amino-1,2-oxazolidin-3-one

>  <ALOGPS_LOGP>  (1) 
-2.31

>  <JCHEM_LOGP>  (1) 
-2.421332341545318

>  <ALOGPS_LOGS>  (1) 
0.93

>  <JCHEM_MDDR_LIKE_RULE>  (1) 
0

>  <JCHEM_NEUTRAL_CHARGE>  (1) 
0

>  <JCHEM_NUMBER_OF_RINGS>  (1) 
1

>  <JCHEM_PHYSIOLOGICAL_CHARGE>  (1) 
0

>  <JCHEM_PKA>  (1) 
19.998851660051976

>  <JCHEM_PKA_STRONGEST_ACIDIC>  (1) 
4.210086895651751

>  <JCHEM_PKA_STRONGEST_BASIC>  (1) 
8.361863652158748

>  <JCHEM_POLAR_SURFACE_AREA>  (1) 
64.35

>  <JCHEM_REFRACTIVITY>  (1) 
21.848800000000004

>  <JCHEM_ROTATABLE_BOND_COUNT>  (1) 
0

>  <JCHEM_RULE_OF_FIVE>  (1) 
1

>  <ALOGPS_SOLUBILITY>  (1) 
8.77e+02 g/l

>  <JCHEM_TRADITIONAL_IUPAC>  (1) 
biotin

>  <JCHEM_VEBER_RULE>  (1) 
0

>  <DRUGBANK_ID>  (1) 
DB00260

>  <SECONDARY_ACCESSION_NUMBERS>  (1) 
APRD00894; DB03123

>  <DRUG_GROUPS>  (1) 
approved; investigational

>  <GENERIC_NAME>  (1) 
Cycloserine

>  <SYNONYMS>  (1) 
(+)-4-amino-3-isoxazolidinone; (+)-cycloserine; alpha-Cycloserine; Cicloserina; cyclo-D-Serine; Cyclosérine; Cycloserine; Cycloserinum; D-(+)-cycloserine; D-4-amino-3-isoxazolidinone; D-4-amino-3-isoxazolidone; D-Cycloserine; DCS; Orientomycin; α-Cycloserine

>  <PRODUCTS>  (1) 
Cycloserine; Seromycin; Seromycin Cap 250mg

>  <INTERNATIONAL_BRANDS>  (1) 
Oxamycin; Tisomycin

$$$$
