
     RDKit          2D

 17 17  0  0  0  0  0  0  0  0999 V2000
   -2.1435    0.8251    0.0000 C   0  0  0  0  0  0  0  0  0  0  0  0
   -2.8580    0.4125    0.0000 C   0  0  0  0  0  0  0  0  0  0  0  0
   -2.8580   -0.4124    0.0000 C   0  0  0  0  0  0  0  0  0  0  0  0
   -2.1435   -0.8251    0.0000 C   0  0  0  0  0  0  0  0  0  0  0  0
   -1.4290   -0.4124    0.0000 C   0  0  0  0  0  0  0  0  0  0  0  0
   -1.4290    0.4125    0.0000 C   0  0  0  0  0  0  0  0  0  0  0  0
   -3.5726   -0.8250    0.0000 Cl  0  0  0  0  0  0  0  0  0  0  0  0
   -0.7145    0.8251    0.0000 N   0  0  0  0  0  0  0  0  0  0  0  0
    0.0000    0.4125    0.0000 C   0  0  0  0  0  0  0  0  0  0  0  0
    0.0000   -0.4124    0.0000 N   0  0  0  0  0  0  0  0  0  0  0  0
    0.7145    0.8251    0.0000 N   0  0  0  0  0  0  0  0  0  0  0  0
    1.4290    0.4125    0.0000 C   0  0  0  0  0  0  0  0  0  0  0  0
    1.4290   -0.4124    0.0000 N   0  0  0  0  0  0  0  0  0  0  0  0
    2.1436    0.8251    0.0000 N   0  0  0  0  0  0  0  0  0  0  0  0
    2.8580    0.4125    0.0000 C   0  0  0  0  0  0  0  0  0  0  0  0
    3.5726    0.8251    0.0000 C   0  0  0  0  0  0  0  0  0  0  0  0
    2.8580   -0.4124    0.0000 C   0  0  0  0  0  0  0  0  0  0  0  0
  1  2  2  0
  1  6  1  0
  2  3  1  0
  3  4  2  0
  4  5  1  0
  5  6  2  0
  3  7  1  0
  6  8  1  0
  8  9  1  0
  9 10  2  0
  9 11  1  0
 11 12  1  0
 12 13  2  0
 12 14  1  0
 14 15  1  0
 15 16  1  0
 15 17  1  0
M  END
>  <DATABASE_ID>  (1) 
DB01131

>  <DATABASE_NAME>  (1) 
drugbank

>  <SMILES>  (1) 
CC(C)NC(=N)NC(=N)NC1=CC=C(Cl)C=C1

>  <INCHI_IDENTIFIER>  (1) 
InChI=1S/C11H16ClN5/c1-7(2)15-10(13)17-11(14)16-9-5-3-8(12)4-6-9/h3-7H,1-2H3,(H5,13,14,15,16,17)

>  <INCHI_KEY>  (1) 
SSOLNOMRVKKSON-UHFFFAOYSA-N

>  <FORMULA>  (1) 
C11H16ClN5

>  <MOLECULAR_WEIGHT>  (1) 
253.731

>  <EXACT_MASS>  (1) 
253.109423244

>  <JCHEM_ACCEPTOR_COUNT>  (1) 
5

>  <JCHEM_ATOM_COUNT>  (1) 
33

>  <JCHEM_AVERAGE_POLARIZABILITY>  (1) 
26.754472255332054

>  <JCHEM_BIOAVAILABILITY>  (1) 
1

>  <JCHEM_DONOR_COUNT>  (1) 
5

>  <JCHEM_FORMAL_CHARGE>  (1) 
0

>  <JCHEM_GHOSE_FILTER>  (1) 
1

>  <JCHEM_IUPAC>  (1) 
1-[N'-(4-chlorophenyl)carbamimidamido]-N-(propan-2-yl)methanimidamide

>  <ALOGPS_LOGP>  (1) 
2.29

>  <JCHEM_LOGP>  (1) 
2.381100169666667

>  <ALOGPS_LOGS>  (1) 
-3.34

>  <JCHEM_MDDR_LIKE_RULE>  (1) 
0

>  <JCHEM_NUMBER_OF_RINGS>  (1) 
1

>  <JCHEM_PHYSIOLOGICAL_CHARGE>  (1) 
2

>  <JCHEM_PKA_STRONGEST_BASIC>  (1) 
10.395690378440479

>  <JCHEM_POLAR_SURFACE_AREA>  (1) 
83.79

>  <JCHEM_REFRACTIVITY>  (1) 
91.6532

>  <JCHEM_ROTATABLE_BOND_COUNT>  (1) 
2

>  <JCHEM_RULE_OF_FIVE>  (1) 
1

>  <ALOGPS_SOLUBILITY>  (1) 
1.16e-01 g/l

>  <JCHEM_TRADITIONAL_IUPAC>  (1) 
proguanil

>  <JCHEM_VEBER_RULE>  (1) 
0

>  <DRUGBANK_ID>  (1) 
DB01131

>  <SECONDARY_ACCESSION_NUMBERS>  (1) 
APRD00188

>  <DRUG_GROUPS>  (1) 
approved

>  <GENERIC_NAME>  (1) 
Proguanil

>  <SYNONYMS>  (1) 
1-(p-Chlorophenyl)-5-isopropylbiguanide; Chlorguanide; Chloroguanide; Proguanil; Proguanile; Proguanilo; Proguanilum

>  <PRODUCTS>  (1) 
Atovaquone Proguanil; Atovaquone and Proguanil HCl; Atovaquone and Proguanil Hydrochloride; Atovaquone and Proguanil Hydrochloride Pediatric; Atovaquone and Proguanil Hydrochloride Tablets; Malarone; Malarone Pediatric; Mylan-atovaquone/proguanil; Paludrine Tab 0.1gm; Paludrine Tab 100mg; Teva-atovaquone Proguanil

>  <INTERNATIONAL_BRANDS>  (1) 
Paludrine

>  <SALTS>  (1) 
Proguanil hydrochloride

$$$$
