
     RDKit          2D

 30 33  0  0  0  0  0  0  0  0999 V2000
   -1.4039    1.0107    0.0000 N   0  0  0  0  0  0  0  0  0  0  0  0
   -0.7043    1.4254    0.0000 C   0  0  0  0  0  0  0  0  0  0  0  0
   -1.4039    2.6702    0.0000 S   0  0  0  0  0  0  0  0  0  0  0  0
   -0.7043    2.2504    0.0000 C   0  0  0  0  0  0  0  0  0  0  0  0
   -2.1178    1.4254    0.0000 C   0  0  0  0  0  0  0  0  0  0  0  0
   -2.1178    2.2504    0.0000 C   0  0  0  0  0  0  0  0  0  0  0  0
   -0.0048    1.0107    0.0000 C   0  0  0  0  0  0  0  0  0  0  0  0
    0.7187    1.4254    0.0000 C   0  0  0  0  0  0  0  0  0  0  0  0
   -0.0048   -1.4352    0.0000 N   0  0  0  0  0  0  0  0  0  0  0  0
    1.4135   -2.2505    0.0000 N   0  0  0  0  0  0  0  0  0  0  0  0
    1.4135    1.0107    0.0000 C   0  0  0  0  0  0  0  0  0  0  0  0
   -0.0048    2.6702    0.0000 C   0  0  0  0  0  0  0  0  0  0  0  0
    0.7187    2.2504    0.0000 C   0  0  0  0  0  0  0  0  0  0  0  0
    1.4135    0.1857    0.0000 O   0  0  0  0  0  0  0  0  0  0  0  0
   -1.4039    0.1857    0.0000 C   0  0  0  0  0  0  0  0  0  0  0  0
    1.4135   -1.4352    0.0000 C   0  0  0  0  0  0  0  0  0  0  0  0
   -0.0048   -2.2505    0.0000 C   0  0  0  0  0  0  0  0  0  0  0  0
    0.7187   -1.0203    0.0000 C   0  0  0  0  0  0  0  0  0  0  0  0
    0.7187   -2.6702    0.0000 C   0  0  0  0  0  0  0  0  0  0  0  0
   -0.7043   -0.2099    0.0000 C   0  0  0  0  0  0  0  0  0  0  0  0
   -0.7043   -1.0203    0.0000 C   0  0  0  0  0  0  0  0  0  0  0  0
   -2.8414    1.0107    0.0000 C   0  0  0  0  0  0  0  0  0  0  0  0
    2.1371   -2.6702    0.0000 C   0  0  0  0  0  0  0  0  0  0  0  0
   -2.8414    2.6702    0.0000 C   0  0  0  0  0  0  0  0  0  0  0  0
    3.5554   -2.6702    0.0000 O   0  0  0  0  0  0  0  0  0  0  0  0
    2.1371    1.4254    0.0000 C   0  0  0  0  0  0  0  0  0  0  0  0
    2.8463   -2.2505    0.0000 C   0  0  0  0  0  0  0  0  0  0  0  0
    2.8463    1.0107    0.0000 C   0  0  0  0  0  0  0  0  0  0  0  0
   -3.5554    1.4254    0.0000 C   0  0  0  0  0  0  0  0  0  0  0  0
   -3.5554    2.2504    0.0000 C   0  0  0  0  0  0  0  0  0  0  0  0
  2  1  1  0
  3  6  1  0
  4  2  2  0
  5  1  1  0
  6  5  2  0
  7  2  1  0
  8  7  2  0
  9 21  1  0
 10 19  1  0
 11  8  1  0
 12  4  1  0
 13  8  1  0
 14 11  2  0
 15  1  1  0
 16 18  1  0
 17  9  1  0
 18  9  1  0
 19 17  1  0
 20 15  1  0
 21 20  1  0
 22  5  1  0
 23 10  1  0
 24  6  1  0
 25 27  1  0
 26 11  1  0
 27 23  1  0
 28 26  1  0
 29 22  2  0
 30 24  2  0
  4  3  1  0
 29 30  1  0
 12 13  2  0
 16 10  1  0
M  END
>  <DATABASE_ID>  (1) 
DB01038

>  <DATABASE_NAME>  (1) 
drugbank

>  <SMILES>  (1) 
CCC(=O)C1=CC=C2SC3=C(C=CC=C3)N(CCCN3CCN(CCO)CC3)C2=C1

>  <INCHI_IDENTIFIER>  (1) 
InChI=1S/C24H31N3O2S/c1-2-22(29)19-8-9-24-21(18-19)27(20-6-3-4-7-23(20)30-24)11-5-10-25-12-14-26(15-13-25)16-17-28/h3-4,6-9,18,28H,2,5,10-17H2,1H3

>  <INCHI_KEY>  (1) 
XZSMZRXAEFNJCU-UHFFFAOYSA-N

>  <FORMULA>  (1) 
C24H31N3O2S

>  <MOLECULAR_WEIGHT>  (1) 
425.59

>  <EXACT_MASS>  (1) 
425.213698424

>  <JCHEM_ACCEPTOR_COUNT>  (1) 
5

>  <JCHEM_ATOM_COUNT>  (1) 
61

>  <JCHEM_AVERAGE_POLARIZABILITY>  (1) 
49.224111231309145

>  <JCHEM_BIOAVAILABILITY>  (1) 
1

>  <JCHEM_DONOR_COUNT>  (1) 
1

>  <JCHEM_FORMAL_CHARGE>  (1) 
0

>  <JCHEM_GHOSE_FILTER>  (1) 
1

>  <JCHEM_IUPAC>  (1) 
1-(10-{3-[4-(2-hydroxyethyl)piperazin-1-yl]propyl}-10H-phenothiazin-2-yl)propan-1-one

>  <ALOGPS_LOGP>  (1) 
3.26

>  <JCHEM_LOGP>  (1) 
3.3461564986666668

>  <ALOGPS_LOGS>  (1) 
-4.06

>  <JCHEM_MDDR_LIKE_RULE>  (1) 
1

>  <JCHEM_NUMBER_OF_RINGS>  (1) 
4

>  <JCHEM_PHYSIOLOGICAL_CHARGE>  (1) 
1

>  <JCHEM_PKA>  (1) 
16.680092498664305

>  <JCHEM_PKA_STRONGEST_ACIDIC>  (1) 
15.556012646634006

>  <JCHEM_PKA_STRONGEST_BASIC>  (1) 
7.666166146203319

>  <JCHEM_POLAR_SURFACE_AREA>  (1) 
47.019999999999996

>  <JCHEM_REFRACTIVITY>  (1) 
126.3236

>  <JCHEM_ROTATABLE_BOND_COUNT>  (1) 
8

>  <JCHEM_RULE_OF_FIVE>  (1) 
1

>  <ALOGPS_SOLUBILITY>  (1) 
3.66e-02 g/l

>  <JCHEM_TRADITIONAL_IUPAC>  (1) 
carphenazine

>  <JCHEM_VEBER_RULE>  (1) 
0

>  <DRUGBANK_ID>  (1) 
DB01038

>  <SECONDARY_ACCESSION_NUMBERS>  (1) 
APRD00848

>  <DRUG_GROUPS>  (1) 
approved; withdrawn

>  <GENERIC_NAME>  (1) 
Carphenazine

>  <SYNONYMS>  (1) 
Carfenazina; Carfénazine; Carfenazine; Carfenazinum; Carphenazine

>  <INTERNATIONAL_BRANDS>  (1) 
Proketazin; Proketazine

>  <SALTS>  (1) 
Carphenazine maleate

$$$$
