
     RDKit          2D

  5  4  0  0  0  0  0  0  0  0999 V2000
    0.8250    0.0000    0.0000 C   0  0  0  0  0  0  0  0  0  0  0  0
    0.0000    0.0000    0.0000 C   0  0  0  0  0  0  0  0  0  0  0  0
    1.2375    0.7145    0.0000 Cl  0  0  0  0  0  0  0  0  0  0  0  0
   -0.4125   -0.7145    0.0000 Cl  0  0  0  0  0  0  0  0  0  0  0  0
   -0.4125    0.7145    0.0000 Cl  0  0  0  0  0  0  0  0  0  0  0  0
  2  1  2  0
  3  1  1  0
  4  2  1  0
  5  2  1  0
M  END
>  <DATABASE_ID>  (1) 
DB13323

>  <DATABASE_NAME>  (1) 
drugbank

>  <SMILES>  (1) 
ClC=C(Cl)Cl

>  <INCHI_IDENTIFIER>  (1) 
InChI=1S/C2HCl3/c3-1-2(4)5/h1H

>  <INCHI_KEY>  (1) 
XSTXAVWGXDQKEL-UHFFFAOYSA-N

>  <FORMULA>  (1) 
C2HCl3

>  <MOLECULAR_WEIGHT>  (1) 
131.388

>  <EXACT_MASS>  (1) 
129.914383153

>  <JCHEM_ACCEPTOR_COUNT>  (1) 
0

>  <JCHEM_ATOM_COUNT>  (1) 
6

>  <JCHEM_AVERAGE_NEUTRAL_MICROSPECIES_CHARGE>  (1) 
0.0

>  <JCHEM_AVERAGE_POLARIZABILITY>  (1) 
9.593047784605647

>  <JCHEM_BIOAVAILABILITY>  (1) 
1

>  <JCHEM_DONOR_COUNT>  (1) 
0

>  <JCHEM_FORMAL_CHARGE>  (1) 
0

>  <JCHEM_GHOSE_FILTER>  (1) 
0

>  <JCHEM_IUPAC>  (1) 
1,1,2-trichloroethene

>  <ALOGPS_LOGP>  (1) 
2.45

>  <JCHEM_LOGP>  (1) 
2.17833483

>  <ALOGPS_LOGS>  (1) 
-1.83

>  <JCHEM_MDDR_LIKE_RULE>  (1) 
0

>  <JCHEM_NEUTRAL_CHARGE>  (1) 
0

>  <JCHEM_NUMBER_OF_RINGS>  (1) 
0

>  <JCHEM_PHYSIOLOGICAL_CHARGE>  (1) 
0

>  <JCHEM_POLAR_SURFACE_AREA>  (1) 
0.0

>  <JCHEM_REFRACTIVITY>  (1) 
35.177

>  <JCHEM_ROTATABLE_BOND_COUNT>  (1) 
0

>  <JCHEM_RULE_OF_FIVE>  (1) 
1

>  <ALOGPS_SOLUBILITY>  (1) 
1.96e+00 g/l

>  <JCHEM_TRADITIONAL_IUPAC>  (1) 
biotin

>  <JCHEM_VEBER_RULE>  (1) 
1

>  <DRUGBANK_ID>  (1) 
DB13323

>  <DRUG_GROUPS>  (1) 
approved

>  <GENERIC_NAME>  (1) 
Trichloroethylene

>  <SYNONYMS>  (1) 
1,1-dichloro-2-chloroethylene; acetylene trichloride; ethinyl trichloride; ethylene trichloride; Narcogen; TCE; trichlor; Trichloräthen; Trichloräthylen; trichloréthylène; Trichloroethene; Trichloroethylene; trichloroéthylène; trichloroethylenum; triciene

>  <INTERNATIONAL_BRANDS>  (1) 
Chlorylen

$$$$
