
     RDKit          2D

  1  0  0  0  0  0  0  0  0  0999 V2000
    0.0000    0.0000    0.0000 Fe  0  0  0  0  0 15  0  0  0  0  0  0
M  CHG  1   1   3
M  END
>  <DATABASE_ID>  (1) 
DB13949

>  <DATABASE_NAME>  (1) 
drugbank

>  <SMILES>  (1) 
[Fe+3]

>  <INCHI_IDENTIFIER>  (1) 
InChI=1S/Fe/q+3

>  <INCHI_KEY>  (1) 
VTLYFUHAOXGGBS-UHFFFAOYSA-N

>  <FORMULA>  (1) 
Fe

>  <MOLECULAR_WEIGHT>  (1) 
55.845

>  <EXACT_MASS>  (1) 
55.934942133

>  <JCHEM_ACCEPTOR_COUNT>  (1) 
0

>  <JCHEM_ATOM_COUNT>  (1) 
1

>  <JCHEM_AVERAGE_POLARIZABILITY>  (1) 
1.7784

>  <JCHEM_BIOAVAILABILITY>  (1) 
1

>  <JCHEM_DONOR_COUNT>  (1) 
0

>  <JCHEM_FORMAL_CHARGE>  (1) 
3

>  <JCHEM_GHOSE_FILTER>  (1) 
0

>  <JCHEM_IUPAC>  (1) 
iron(3+) ion

>  <JCHEM_LOGP>  (1) 
-0.77

>  <JCHEM_MDDR_LIKE_RULE>  (1) 
0

>  <JCHEM_NUMBER_OF_RINGS>  (1) 
0

>  <JCHEM_PHYSIOLOGICAL_CHARGE>  (1) 
3

>  <JCHEM_PKA>  (1) 
5.46

>  <JCHEM_PKA_STRONGEST_ACIDIC>  (1) 
4.58

>  <JCHEM_POLAR_SURFACE_AREA>  (1) 
0.0

>  <JCHEM_REFRACTIVITY>  (1) 
0.0

>  <JCHEM_ROTATABLE_BOND_COUNT>  (1) 
0

>  <JCHEM_RULE_OF_FIVE>  (1) 
1

>  <JCHEM_TRADITIONAL_IUPAC>  (1) 
iron(3+) ion

>  <JCHEM_VEBER_RULE>  (1) 
1

>  <DRUGBANK_ID>  (1) 
DB13949

>  <DRUG_GROUPS>  (1) 
approved; withdrawn

>  <GENERIC_NAME>  (1) 
Ferric cation

>  <SYNONYMS>  (1) 
FE (III) ION; Fe(III); Ferric cation; Ferric ion; iron(3+)

$$$$
