1101
     RDKit          2D

 25 26  0  0  1  0  0  0  0  0999 V2000
    5.9370   -0.0354    0.0000 F   0  0  0  0  0  0  0  0  0  0  0  0
    5.1754   -2.9954    0.0000 O   0  0  0  0  0  0  0  0  0  0  0  0
    3.0559   -2.7404    0.0000 O   0  0  0  0  0  0  0  0  0  0  0  0
    3.6105   -4.4474    0.0000 O   0  0  0  0  0  0  0  0  0  0  0  0
    3.0791   -1.6854    0.0000 O   0  0  0  0  0  0  0  0  0  0  0  0
    3.7935    2.0272    0.0000 O   0  0  0  0  0  0  0  0  0  0  0  0
    3.0791    0.7896    0.0000 O   0  0  0  0  0  0  0  0  0  0  0  0
    4.5080   -1.6854    0.0000 N   0  0  0  0  0  0  0  0  0  0  0  0
    3.7935   -0.4479    0.0000 N   0  0  0  0  0  0  0  0  0  0  0  0
    4.5080    0.7896    0.0000 N   0  0  0  0  0  0  0  0  0  0  0  0
    3.8405   -2.9954    0.0000 C   0  0  0  0  0  0  0  0  0  0  0  0
    4.0955   -3.7800    0.0000 C   0  0  0  0  0  0  0  0  0  0  0  0
    4.5080   -2.5104    0.0000 C   0  0  0  0  0  0  0  0  0  0  0  0
    4.9205   -3.7800    0.0000 C   0  0  0  0  0  0  0  0  0  0  0  0
    5.4054   -4.4474    0.0000 C   0  0  0  0  0  0  0  0  0  0  0  0
    5.2224   -1.2729    0.0000 C   0  0  0  0  0  0  0  0  0  0  0  0
    3.7935   -1.2729    0.0000 C   0  0  0  0  0  0  0  0  0  0  0  0
    5.2224   -0.4479    0.0000 C   0  0  0  0  0  0  0  0  0  0  0  0
    4.5080   -0.0354    0.0000 C   0  0  0  0  0  0  0  0  0  0  0  0
    2.3645    3.6772    0.0000 C   0  0  0  0  0  0  0  0  0  0  0  0
    3.0791    3.2647    0.0000 C   0  0  0  0  0  0  0  0  0  0  0  0
    2.3645    4.5022    0.0000 C   0  0  0  0  0  0  0  0  0  0  0  0
    3.0791    2.4397    0.0000 C   0  0  0  0  0  0  0  0  0  0  0  0
    3.7935    1.2021    0.0000 C   0  0  0  0  0  0  0  0  0  0  0  0
    1.6500    4.9147    0.0000 C   0  0  0  0  0  0  0  0  0  0  0  0
  1 18  1  0
  2 13  1  0
  2 14  1  0
 11  3  1  1
 12  4  1  1
  5 17  2  0
  6 23  1  0
  6 24  1  0
  7 24  2  0
 13  8  1  6
  8 16  1  0
  8 17  1  0
  9 17  1  0
  9 19  2  0
 10 19  1  0
 10 24  1  0
 11 12  1  0
 11 13  1  0
 12 14  1  0
 14 15  1  6
 16 18  2  0
 18 19  1  0
 20 21  1  0
 20 22  1  0
 21 23  1  0
 22 25  1  0
M  END
>  <DATABASE_ID>  (1) 
DB01101

>  <DATABASE_NAME>  (1) 
drugbank

>  <SMILES>  (1) 
CCCCCOC(=O)NC1=NC(=O)N(C=C1F)[C@@H]1O[C@H](C)[C@@H](O)[C@H]1O

>  <INCHI_IDENTIFIER>  (1) 
InChI=1S/C15H22FN3O6/c1-3-4-5-6-24-15(23)18-12-9(16)7-19(14(22)17-12)13-11(21)10(20)8(2)25-13/h7-8,10-11,13,20-21H,3-6H2,1-2H3,(H,17,18,22,23)/t8-,10-,11-,13-/m1/s1

>  <INCHI_KEY>  (1) 
GAGWJHPBXLXJQN-UORFTKCHSA-N

>  <FORMULA>  (1) 
C15H22FN3O6

>  <MOLECULAR_WEIGHT>  (1) 
359.3501

>  <EXACT_MASS>  (1) 
359.149263656

>  <JCHEM_ACCEPTOR_COUNT>  (1) 
6

>  <JCHEM_ATOM_COUNT>  (1) 
47

>  <JCHEM_AVERAGE_NEUTRAL_MICROSPECIES_CHARGE>  (1) 
-0.02311135068885848

>  <JCHEM_AVERAGE_POLARIZABILITY>  (1) 
35.93609197046743

>  <JCHEM_BIOAVAILABILITY>  (1) 
1

>  <JCHEM_DONOR_COUNT>  (1) 
3

>  <JCHEM_FORMAL_CHARGE>  (1) 
0

>  <JCHEM_GHOSE_FILTER>  (1) 
1

>  <JCHEM_IUPAC>  (1) 
pentyl N-{1-[(2R,3R,4S,5R)-3,4-dihydroxy-5-methyloxolan-2-yl]-5-fluoro-2-oxo-1,2-dihydropyrimidin-4-yl}carbamate

>  <ALOGPS_LOGP>  (1) 
1.17

>  <JCHEM_LOGP>  (1) 
0.7680360469999987

>  <ALOGPS_LOGS>  (1) 
-3.16

>  <JCHEM_MDDR_LIKE_RULE>  (1) 
0

>  <JCHEM_NEUTRAL_CHARGE>  (1) 
0

>  <JCHEM_NUMBER_OF_RINGS>  (1) 
2

>  <JCHEM_PHYSIOLOGICAL_CHARGE>  (1) 
0

>  <JCHEM_PKA>  (1) 
12.58846629011208

>  <JCHEM_PKA_STRONGEST_ACIDIC>  (1) 
8.626069347893116

>  <JCHEM_PKA_STRONGEST_BASIC>  (1) 
0.07348816553113491

>  <JCHEM_POLAR_SURFACE_AREA>  (1) 
120.69

>  <JCHEM_REFRACTIVITY>  (1) 
82.746

>  <JCHEM_ROTATABLE_BOND_COUNT>  (1) 
7

>  <JCHEM_RULE_OF_FIVE>  (1) 
1

>  <ALOGPS_SOLUBILITY>  (1) 
2.48e-01 g/l

>  <JCHEM_TRADITIONAL_IUPAC>  (1) 
biotin

>  <JCHEM_VEBER_RULE>  (1) 
0

>  <DRUGBANK_ID>  (1) 
DB01101

>  <SECONDARY_ACCESSION_NUMBERS>  (1) 
APRD00203

>  <DRUG_GROUPS>  (1) 
approved; investigational

>  <GENERIC_NAME>  (1) 
Capecitabine

>  <SYNONYMS>  (1) 
(1-(5-Deoxy-beta-D-ribofuranosyl)-5-fluoro-1,2-dihydro-2-oxo-4-pyrimidinyl)-carbamic acid pentyl ester; Capecitabin; Capecitabina; Capécitabine; Capecitabine; Capecitabinum; Pentyl [1-(5-deoxy-β-D-ribofuranosyl)-5-fluoro-2-oxo-1,2-dihydropyrimidin-4-yl]carbamate; pentyl 1-(5-deoxy-β-D-ribofuranosyl)-5-fluoro-1,2-dihydro-2-oxo-4-pyrimidinecarbamate

>  <PRODUCTS>  (1) 
Ach-capecitabine; Apo-capecitabine; Capecitabine; Capecitabine 150mg; Capecitabine 500mg; Capecitabine Accord; Capecitabine Medac; Capecitabine Sun; Capecitabine Tablets, 150 mg; Capecitabine Tablets, 500 mg; Capecitabine Teva; Ecansya; Mint-capecitabine; Sandoz Capecitabine; Taro-capecitabine; Teva-capecitabine; Xeloda

>  <INTERNATIONAL_BRANDS>  (1) 
Xeloda

$$$$
