
     RDKit          2D

  5  3  0  0  0  0  0  0  0  0999 V2000
   -0.7005   -1.0305    0.0000 K   0  0  0  0  0 15  0  0  0  0  0  0
   -0.7005   -0.2055    0.0000 O   0  0  0  0  0  0  0  0  0  0  0  0
    0.0405    0.2055    0.0000 C   0  0  0  0  0  0  0  0  0  0  0  0
    0.0405    1.0305    0.0000 C   0  0  0  0  0  0  0  0  0  0  0  0
    0.7005   -0.2055    0.0000 O   0  0  0  0  0  0  0  0  0  0  0  0
  2  3  1  0
  3  4  1  0
  3  5  2  0
M  CHG  2   1   1   2  -1
M  END
>  <DATABASE_ID>  (1) 
DB14498

>  <DATABASE_NAME>  (1) 
drugbank

>  <SMILES>  (1) 
[K+].CC([O-])=O

>  <INCHI_IDENTIFIER>  (1) 
InChI=1S/C2H4O2.K/c1-2(3)4;/h1H3,(H,3,4);/q;+1/p-1

>  <INCHI_KEY>  (1) 
SCVFZCLFOSHCOH-UHFFFAOYSA-M

>  <FORMULA>  (1) 
C2H3KO2

>  <MOLECULAR_WEIGHT>  (1) 
98.1423

>  <EXACT_MASS>  (1) 
97.977011201

>  <JCHEM_ACCEPTOR_COUNT>  (1) 
2

>  <JCHEM_ATOM_COUNT>  (1) 
8

>  <JCHEM_AVERAGE_POLARIZABILITY>  (1) 
4.95598679393429

>  <JCHEM_BIOAVAILABILITY>  (1) 
1

>  <JCHEM_DONOR_COUNT>  (1) 
0

>  <JCHEM_FORMAL_CHARGE>  (1) 
0

>  <JCHEM_GHOSE_FILTER>  (1) 
0

>  <JCHEM_IUPAC>  (1) 
potassium acetate

>  <ALOGPS_LOGP>  (1) 
-0.27

>  <JCHEM_LOGP>  (1) 
-0.2233457143333334

>  <ALOGPS_LOGS>  (1) 
0.54

>  <JCHEM_MDDR_LIKE_RULE>  (1) 
0

>  <JCHEM_NUMBER_OF_RINGS>  (1) 
0

>  <JCHEM_PHYSIOLOGICAL_CHARGE>  (1) 
-1

>  <JCHEM_PKA_STRONGEST_ACIDIC>  (1) 
4.543439679000835

>  <JCHEM_POLAR_SURFACE_AREA>  (1) 
40.129999999999995

>  <JCHEM_REFRACTIVITY>  (1) 
23.480800000000002

>  <JCHEM_ROTATABLE_BOND_COUNT>  (1) 
0

>  <JCHEM_RULE_OF_FIVE>  (1) 
1

>  <ALOGPS_SOLUBILITY>  (1) 
3.42e+02 g/l

>  <JCHEM_TRADITIONAL_IUPAC>  (1) 
potassium acetate

>  <JCHEM_VEBER_RULE>  (1) 
0

>  <DRUGBANK_ID>  (1) 
DB14498

>  <SECONDARY_ACCESSION_NUMBERS>  (1) 
DBSALT001427

>  <DRUG_GROUPS>  (1) 
approved

>  <GENERIC_NAME>  (1) 
Potassium acetate

>  <SYNONYMS>  (1) 
Potassium acetate

>  <PRODUCTS>  (1) 
Aminosyn; Aminosyn 3.5% M; Hyperlyte (multi-electrolyte Concentrate); Hyperlyte CR; Hyperlyte CR Multi-electrolyte Concentrate; Lypholyte; Lypholyte Multi-electrolyte Conc Inj; Normosol-M & 5% Dextrose; Normosol-M and Dextrose; Nutrilyte; Nutrilyte II; Plasma-lyte 56; Plasma-lyte 56 5% Dextrose Inj; Plasma-lyte 56 and Dextrose; Potassium Acetate; Potassium Acetate Inj 2meq/ml; Potassium Acetate Inj 392mg/ml USP; Potassium Acetate Injection; Potassium Acetate Injection USP

$$$$
