
     RDKit          2D

 21 22  0  0  0  0  0  0  0  0999 V2000
    1.4289    0.8250    0.0000 O   0  0  0  0  0  0  0  0  0  0  0  0
    1.4289    0.0000    0.0000 C   0  0  0  0  0  0  0  0  0  0  0  0
    0.7145   -0.4125    0.0000 O   0  0  0  0  0  0  0  0  0  0  0  0
    2.1434   -0.4125    0.0000 C   0  0  0  0  0  0  0  0  0  0  0  0
    2.1434   -1.2375    0.0000 C   0  0  0  0  0  0  0  0  0  0  0  0
    2.8579   -1.6500    0.0000 C   0  0  0  0  0  0  0  0  0  0  0  0
    2.8579   -2.4750    0.0000 C   0  0  0  0  0  0  0  0  0  0  0  0
    3.5724   -2.8875    0.0000 I   0  0  0  0  0  0  0  0  0  0  0  0
    2.1434   -2.8875    0.0000 C   0  0  0  0  0  0  0  0  0  0  0  0
    2.1434   -3.7125    0.0000 O   0  0  0  0  0  0  0  0  0  0  0  0
    1.4289   -4.1250    0.0000 C   0  0  0  0  0  0  0  0  0  0  0  0
    1.4289   -4.9500    0.0000 C   0  0  0  0  0  0  0  0  0  0  0  0
    0.7145   -5.3625    0.0000 C   0  0  0  0  0  0  0  0  0  0  0  0
    0.0000   -4.9500    0.0000 C   0  0  0  0  0  0  0  0  0  0  0  0
   -0.7145   -5.3625    0.0000 O   0  0  0  0  0  0  0  0  0  0  0  0
    0.0000   -4.1250    0.0000 C   0  0  0  0  0  0  0  0  0  0  0  0
   -0.7145   -3.7125    0.0000 I   0  0  0  0  0  0  0  0  0  0  0  0
    0.7145   -3.7125    0.0000 C   0  0  0  0  0  0  0  0  0  0  0  0
    1.4289   -2.4750    0.0000 C   0  0  0  0  0  0  0  0  0  0  0  0
    0.7145   -2.8875    0.0000 I   0  0  0  0  0  0  0  0  0  0  0  0
    1.4289   -1.6500    0.0000 C   0  0  0  0  0  0  0  0  0  0  0  0
  1  2  1  0
  2  3  2  0
  2  4  1  0
  4  5  1  0
  5  6  2  0
  6  7  1  0
  7  8  1  0
  7  9  2  0
  9 10  1  0
 10 11  1  0
 11 12  2  0
 12 13  1  0
 13 14  2  0
 14 15  1  0
 14 16  1  0
 16 17  1  0
 16 18  2  0
 11 18  1  0
  9 19  1  0
 19 20  1  0
 19 21  2  0
  5 21  1  0
M  END
>  <DATABASE_ID>  (1) 
DB03604

>  <DATABASE_NAME>  (1) 
drugbank

>  <SMILES>  (1) 
OC(=O)CC1=CC(I)=C(OC2=CC=C(O)C(I)=C2)C(I)=C1

>  <INCHI_IDENTIFIER>  (1) 
InChI=1S/C14H9I3O4/c15-9-6-8(1-2-12(9)18)21-14-10(16)3-7(4-11(14)17)5-13(19)20/h1-4,6,18H,5H2,(H,19,20)

>  <INCHI_KEY>  (1) 
UOWZUVNAGUAEQC-UHFFFAOYSA-N

>  <FORMULA>  (1) 
C14H9I3O4

>  <MOLECULAR_WEIGHT>  (1) 
621.9323

>  <EXACT_MASS>  (1) 
621.763489036

>  <JCHEM_ACCEPTOR_COUNT>  (1) 
3

>  <JCHEM_ATOM_COUNT>  (1) 
30

>  <JCHEM_AVERAGE_NEUTRAL_MICROSPECIES_CHARGE>  (1) 
-1.0277387963068403

>  <JCHEM_AVERAGE_POLARIZABILITY>  (1) 
40.53914888625384

>  <JCHEM_BIOAVAILABILITY>  (1) 
0

>  <JCHEM_DONOR_COUNT>  (1) 
2

>  <JCHEM_FORMAL_CHARGE>  (1) 
0

>  <JCHEM_GHOSE_FILTER>  (1) 
0

>  <JCHEM_IUPAC>  (1) 
2-[4-(4-hydroxy-3-iodophenoxy)-3,5-diiodophenyl]acetic acid

>  <ALOGPS_LOGP>  (1) 
5.27

>  <JCHEM_LOGP>  (1) 
5.594549401666666

>  <ALOGPS_LOGS>  (1) 
-5.06

>  <JCHEM_MDDR_LIKE_RULE>  (1) 
0

>  <JCHEM_NEUTRAL_CHARGE>  (1) 
-1

>  <JCHEM_NUMBER_OF_RINGS>  (1) 
2

>  <JCHEM_PHYSIOLOGICAL_CHARGE>  (1) 
-1

>  <JCHEM_PKA>  (1) 
8.544367461930534

>  <JCHEM_PKA_STRONGEST_ACIDIC>  (1) 
2.3093042853108923

>  <JCHEM_PKA_STRONGEST_BASIC>  (1) 
-3.73587952553168

>  <JCHEM_POLAR_SURFACE_AREA>  (1) 
66.76

>  <JCHEM_REFRACTIVITY>  (1) 
105.67480000000003

>  <JCHEM_ROTATABLE_BOND_COUNT>  (1) 
4

>  <JCHEM_RULE_OF_FIVE>  (1) 
0

>  <ALOGPS_SOLUBILITY>  (1) 
5.39e-03 g/l

>  <JCHEM_TRADITIONAL_IUPAC>  (1) 
tetrahydrofolic acid

>  <JCHEM_VEBER_RULE>  (1) 
0

>  <DRUGBANK_ID>  (1) 
DB03604

>  <SECONDARY_ACCESSION_NUMBERS>  (1) 
EXPT00217; DB12922

>  <DRUG_GROUPS>  (1) 
approved; investigational

>  <GENERIC_NAME>  (1) 
Tiratricol

>  <SYNONYMS>  (1) 
(4-(4-HYDROXY-3-IODOPHENOXY)-3,5-DIIODOPHENYL)ACETIC ACID; 3,5,3'-Triiodothyroacetate; 3',3,5-Triiodothyroacetic acid; BENZENEACETIC ACID, 4-(4-HYDROXY-3-IODOPHENOXY)-3,5-DIIODO-; Tiratricol; Tiratricolum; TRIAC; Triacana; Triiodothyroacetic acid

>  <PRODUCTS>  (1) 
Emcitate

>  <SALTS>  (1) 
Tiratricol sodium

$$$$
