
     RDKit          2D

 25 26  0  0  0  0  0  0  0  0999 V2000
   -5.7158   -1.6500    0.0000 C   0  0  0  0  0  0  0  0  0  0  0  0
   -5.0013   -1.2375    0.0000 C   0  0  0  0  0  0  0  0  0  0  0  0
   -4.5888   -1.9520    0.0000 C   0  0  0  0  0  0  0  0  0  0  0  0
   -5.4138   -0.5230    0.0000 C   0  0  0  0  0  0  0  0  0  0  0  0
   -4.2868   -0.8250    0.0000 N   0  0  0  0  0  0  0  0  0  0  0  0
   -4.2868   -0.0000    0.0000 N   0  0  0  0  0  0  0  0  0  0  0  0
   -3.5724    0.4125    0.0000 C   0  0  0  0  0  0  0  0  0  0  0  0
   -2.8579   -0.0000    0.0000 C   0  0  0  0  0  0  0  0  0  0  0  0
   -2.1434    0.4125    0.0000 O   0  0  0  0  0  0  0  0  0  0  0  0
   -2.1434    1.2375    0.0000 C   0  0  0  0  0  0  0  0  0  0  0  0
   -1.4289    1.6500    0.0000 C   0  0  0  0  0  0  0  0  0  0  0  0
   -1.4289    2.4750    0.0000 C   0  0  0  0  0  0  0  0  0  0  0  0
   -0.7145    2.8875    0.0000 C   0  0  0  0  0  0  0  0  0  0  0  0
    0.0000    2.4750    0.0000 C   0  0  0  0  0  0  0  0  0  0  0  0
    0.7145    2.8875    0.0000 C   0  0  0  0  0  0  0  0  0  0  0  0
    1.4289    2.4750    0.0000 O   0  0  0  0  0  0  0  0  0  0  0  0
    2.1434    2.8875    0.0000 C   0  0  0  0  0  0  0  0  0  0  0  0
    2.8579    2.4750    0.0000 C   0  0  0  0  0  0  0  0  0  0  0  0
    3.5724    2.8875    0.0000 F   0  0  0  0  0  0  0  0  0  0  0  0
    0.0000    1.6500    0.0000 C   0  0  0  0  0  0  0  0  0  0  0  0
   -0.7145    1.2375    0.0000 C   0  0  0  0  0  0  0  0  0  0  0  0
   -2.8579   -0.8250    0.0000 C   0  0  0  0  0  0  0  0  0  0  0  0
   -2.1434   -1.2375    0.0000 Cl  0  0  0  0  0  0  0  0  0  0  0  0
   -3.5724   -1.2375    0.0000 C   0  0  0  0  0  0  0  0  0  0  0  0
   -3.5724   -2.0625    0.0000 O   0  0  0  0  0  0  0  0  0  0  0  0
  1  2  1  0
  2  3  1  0
  2  4  1  0
  2  5  1  0
  5  6  1  0
  6  7  2  0
  7  8  1  0
  8  9  1  0
  9 10  1  0
 10 11  1  0
 11 12  2  0
 12 13  1  0
 13 14  2  0
 14 15  1  0
 15 16  1  0
 16 17  1  0
 17 18  1  0
 18 19  1  0
 14 20  1  0
 20 21  2  0
 11 21  1  0
  8 22  2  0
 22 23  1  0
 22 24  1  0
  5 24  1  0
 24 25  2  0
M  ISO  1  19  18
M  END
>  <DATABASE_ID>  (1) 
DB18773

>  <DATABASE_NAME>  (1) 
drugbank

>  <SMILES>  (1) 
CC(C)(C)N1N=CC(OCC2=CC=C(COCC[18F])C=C2)=C(Cl)C1=O

>  <INCHI_IDENTIFIER>  (1) 
InChI=1S/C18H22ClFN2O3/c1-18(2,3)22-17(23)16(19)15(10-21-22)25-12-14-6-4-13(5-7-14)11-24-9-8-20/h4-7,10H,8-9,11-12H2,1-3H3/i20-1

>  <INCHI_KEY>  (1) 
RMXZKEPDYBTFOS-LRFGSCOBSA-N

>  <FORMULA>  (1) 
C18H22ClFN2O3

>  <MOLECULAR_WEIGHT>  (1) 
367.84

>  <EXACT_MASS>  (1) 
367.1328329

>  <DRUGBANK_ID>  (1) 
DB18773

>  <DRUG_GROUPS>  (1) 
approved

>  <GENERIC_NAME>  (1) 
Flurpiridaz F-18

>  <SYNONYMS>  (1) 
2-tert-butyl-4-chloro-5-((4-((2-(18f)fluoroethoxy)methyl)phenyl)methoxy)pyridazin-3(2h)-one; 2-tert-butyl-4-chloro-5-[[4-(2-(18F)fluoranylethoxymethyl)phenyl]methoxy]pyridazin-3-one; 3(2h)-pyridazinone, 4-chloro-2-(1,1-dimethylethyl)-5-((4-((2-(fluoro-(sup 18)f)ethoxy)methyl)phenyl)methoxy)-; 3(2h)-pyridazinone, 4-chloro-2-(1,1-dimethylethyl)-5-((4-((2-(fluoro-18f)ethoxy)methyl)phenyl)methoxy)-; 4-chloro-2-(1,1-dimethylethyl)-5-((4-((2-((sup 18)f)fluoroethoxy)methyl)phenyl) methoxy)pyridazin-3(2h)-one; Flurpiridaz (18f); flurpiridaz (¹⁸F); Flurpiridaz f 18; Flurpiridaz, F-18

>  <PRODUCTS>  (1) 
Flyrcado

$$$$
