
     RDKit          2D

  5  0  0  0  0  0  0  0  0  0999 V2000
    0.4125    0.0000    0.0000 O   0  0  0  0  0  0  0  0  0  0  0  0
    3.7125    0.0000    0.0000 O   0  0  0  0  0  0  0  0  0  0  0  0
    0.0000   -1.6500    0.0000 O   0  0  0  0  0  0  0  0  0  0  0  0
   -0.4125    0.0000    0.0000 Mg  0  0  0  0  0 15  0  0  0  0  0  0
    2.8875    0.0000    0.0000 Si  0  0  0  0  0  8  0  0  0  0  0  0
M  CHG  5   1  -2   2  -2   3  -2   4   2   5   4
M  END
>  <DATABASE_ID>  (1) 
DB13249

>  <DATABASE_NAME>  (1) 
drugbank

>  <SMILES>  (1) 
[O--].[O--].[O--].[Mg++].[Si+4]

>  <INCHI_IDENTIFIER>  (1) 
InChI=1S/Mg.3O.Si/q+2;3*-2;+4

>  <INCHI_KEY>  (1) 
ZADYMNAVLSWLEQ-UHFFFAOYSA-N

>  <FORMULA>  (1) 
MgO3Si

>  <MOLECULAR_WEIGHT>  (1) 
100.387

>  <EXACT_MASS>  (1) 
99.9467121

>  <JCHEM_ACCEPTOR_COUNT>  (1) 
1

>  <JCHEM_ATOM_COUNT>  (1) 
5

>  <JCHEM_AVERAGE_POLARIZABILITY>  (1) 
0.9475908

>  <JCHEM_BIOAVAILABILITY>  (1) 
1

>  <JCHEM_DONOR_COUNT>  (1) 
0

>  <JCHEM_FORMAL_CHARGE>  (1) 
0

>  <JCHEM_GHOSE_FILTER>  (1) 
0

>  <JCHEM_IUPAC>  (1) 
silicon(4+) ion magnesium(2+) ion trioxidandiide

>  <JCHEM_LOGP>  (1) 
-0.6519999999999999

>  <JCHEM_MDDR_LIKE_RULE>  (1) 
0

>  <JCHEM_NUMBER_OF_RINGS>  (1) 
0

>  <JCHEM_PHYSIOLOGICAL_CHARGE>  (1) 
0

>  <JCHEM_PKA_STRONGEST_ACIDIC>  (1) 
15.7

>  <JCHEM_PKA_STRONGEST_BASIC>  (1) 
-1.7999999999999998

>  <JCHEM_POLAR_SURFACE_AREA>  (1) 
0.0

>  <JCHEM_REFRACTIVITY>  (1) 
13.1149

>  <JCHEM_ROTATABLE_BOND_COUNT>  (1) 
0

>  <JCHEM_RULE_OF_FIVE>  (1) 
1

>  <JCHEM_TRADITIONAL_IUPAC>  (1) 
silicon(4+) ion magnesium(2+) ion trioxidandiide

>  <JCHEM_VEBER_RULE>  (1) 
1

>  <DRUGBANK_ID>  (1) 
DB13249

>  <DRUG_GROUPS>  (1) 
approved; withdrawn

>  <GENERIC_NAME>  (1) 
Magnesium silicate

>  <SYNONYMS>  (1) 
Magnesium silicate

>  <PRODUCTS>  (1) 
Formula EC

$$$$
