
     RDKit          2D

  1  0  0  0  0  0  0  0  0  0999 V2000
    0.0000    0.0000    0.0000 Cu  0  0  0  0  0 15  0  0  0  0  0  0
M  ISO  1   1  64
M  END
>  <DATABASE_ID>  (1) 
DB13980

>  <DATABASE_NAME>  (1) 
drugbank

>  <SMILES>  (1) 
[64Cu]

>  <INCHI_IDENTIFIER>  (1) 
InChI=1S/Cu/i1+0

>  <INCHI_KEY>  (1) 
RYGMFSIKBFXOCR-IGMARMGPSA-N

>  <FORMULA>  (1) 
Cu

>  <MOLECULAR_WEIGHT>  (1) 
63.9298

>  <EXACT_MASS>  (1) 
63.929767865

>  <JCHEM_ACCEPTOR_COUNT>  (1) 
0

>  <JCHEM_ATOM_COUNT>  (1) 
1

>  <JCHEM_AVERAGE_NEUTRAL_MICROSPECIES_CHARGE>  (1) 
0.0

>  <JCHEM_AVERAGE_POLARIZABILITY>  (1) 
1.7784

>  <JCHEM_BIOAVAILABILITY>  (1) 
1

>  <JCHEM_DONOR_COUNT>  (1) 
0

>  <JCHEM_FORMAL_CHARGE>  (1) 
0

>  <JCHEM_GHOSE_FILTER>  (1) 
0

>  <JCHEM_IUPAC>  (1) 
(64Cu)copper

>  <ALOGPS_LOGP>  (1) 
-1.31

>  <JCHEM_LOGP>  (1) 
0.156

>  <ALOGPS_LOGS>  (1) 
1.08

>  <JCHEM_MDDR_LIKE_RULE>  (1) 
0

>  <JCHEM_NEUTRAL_CHARGE>  (1) 
0

>  <JCHEM_NUMBER_OF_RINGS>  (1) 
0

>  <JCHEM_PHYSIOLOGICAL_CHARGE>  (1) 
0

>  <JCHEM_POLAR_SURFACE_AREA>  (1) 
0.0

>  <JCHEM_REFRACTIVITY>  (1) 
0.0

>  <JCHEM_ROTATABLE_BOND_COUNT>  (1) 
0

>  <JCHEM_RULE_OF_FIVE>  (1) 
1

>  <ALOGPS_SOLUBILITY>  (1) 
0.00e+00 g/l

>  <JCHEM_TRADITIONAL_IUPAC>  (1) 
zoptarelin doxorubicin

>  <JCHEM_VEBER_RULE>  (1) 
1

>  <DRUGBANK_ID>  (1) 
DB13980

>  <DRUG_GROUPS>  (1) 
approved

>  <GENERIC_NAME>  (1) 
Copper Cu-64

>  <SYNONYMS>  (1) 
Copper Cu-64; Copper, Cu-64

>  <PRODUCTS>  (1) 
Cuprymina; Dermamed Nutrition for troubled skin

>  <SALTS>  (1) 
Cupric chloride anhydrous Cu-64

$$$$
