
     RDKit          2D

  1  0  0  0  0  0  0  0  0  0999 V2000
    0.0000    0.0000    0.0000 Lu  0  0  0  0  0 15  0  0  0  0  0  0
M  ISO  1   1 177
M  END
>  <DATABASE_ID>  (1) 
DB13982

>  <DATABASE_NAME>  (1) 
drugbank

>  <SMILES>  (1) 
[177Lu]

>  <INCHI_IDENTIFIER>  (1) 
InChI=1S/Lu/i1+2

>  <INCHI_KEY>  (1) 
OHSVLFRHMCKCQY-NJFSPNSNSA-N

>  <FORMULA>  (1) 
Lu

>  <MOLECULAR_WEIGHT>  (1) 
176.9438

>  <EXACT_MASS>  (1) 
176.943754987

>  <JCHEM_ACCEPTOR_COUNT>  (1) 
0

>  <JCHEM_ATOM_COUNT>  (1) 
1

>  <JCHEM_AVERAGE_POLARIZABILITY>  (1) 
1.7784

>  <JCHEM_BIOAVAILABILITY>  (1) 
1

>  <JCHEM_DONOR_COUNT>  (1) 
0

>  <JCHEM_FORMAL_CHARGE>  (1) 
0

>  <JCHEM_GHOSE_FILTER>  (1) 
0

>  <JCHEM_IUPAC>  (1) 
(177Lu)lutetium

>  <JCHEM_LOGP>  (1) 
0.0

>  <JCHEM_MDDR_LIKE_RULE>  (1) 
0

>  <JCHEM_NUMBER_OF_RINGS>  (1) 
0

>  <JCHEM_PHYSIOLOGICAL_CHARGE>  (1) 
0

>  <JCHEM_POLAR_SURFACE_AREA>  (1) 
0.0

>  <JCHEM_REFRACTIVITY>  (1) 
0.0

>  <JCHEM_ROTATABLE_BOND_COUNT>  (1) 
0

>  <JCHEM_RULE_OF_FIVE>  (1) 
1

>  <JCHEM_TRADITIONAL_IUPAC>  (1) 
(177Lu)lutetium

>  <JCHEM_VEBER_RULE>  (1) 
1

>  <DRUGBANK_ID>  (1) 
DB13982

>  <DRUG_GROUPS>  (1) 
approved; investigational

>  <GENERIC_NAME>  (1) 
Lutetium Lu-177

>  <SYNONYMS>  (1) 
177Lu; Lu 177; Lu-177; Lutetium Lu 177; Lutetium Lu-177; Lutetium-177

>  <PRODUCTS>  (1) 
Endolucinbeta; Illuzyce; Lumark; Theralugand

>  <SALTS>  (1) 
Lutetium chloride Lu-177

$$$$
