
     RDKit          2D

 34 37  0  0  0  0  0  0  0  0999 V2000
    0.7144    0.6187    0.0000 C   0  0  0  0  0  0  0  0  0  0  0  0
   -0.7144    0.6187    0.0000 C   0  0  0  0  0  0  0  0  0  0  0  0
    0.7144   -0.2062    0.0000 C   0  0  0  0  0  0  0  0  0  0  0  0
    2.1433    0.6187    0.0000 C   0  0  0  0  0  0  0  0  0  0  0  0
    0.0000    1.0312    0.0000 C   0  0  0  0  0  0  0  0  0  0  0  0
    1.4289    1.0312    0.0000 C   0  0  0  0  0  0  0  0  0  0  0  0
    2.1433   -0.2062    0.0000 C   0  0  0  0  0  0  0  0  0  0  0  0
   -1.4289    1.0312    0.0000 C   0  0  0  0  0  0  0  0  0  0  0  0
   -0.7144   -0.2062    0.0000 C   0  0  0  0  0  0  0  0  0  0  0  0
    1.4289   -0.6187    0.0000 C   0  0  0  0  0  0  0  0  0  0  0  0
   -2.1434    0.6187    0.0000 C   0  0  0  0  0  0  0  0  0  0  0  0
    0.0000   -0.6187    0.0000 C   0  0  0  0  0  0  0  0  0  0  0  0
   -2.1434   -0.2062    0.0000 C   0  0  0  0  0  0  0  0  0  0  0  0
   -1.4289   -0.6187    0.0000 C   0  0  0  0  0  0  0  0  0  0  0  0
    2.8578    1.0312    0.0000 C   0  0  0  0  0  0  0  0  0  0  0  0
    1.4289   -1.4437    0.0000 N   0  0  0  0  0  0  0  0  0  0  0  0
    1.4289    1.8562    0.0000 O   0  0  0  0  0  0  0  0  0  0  0  0
   -1.4289    1.8562    0.0000 O   0  0  0  0  0  0  0  0  0  0  0  0
   -2.8578    1.0312    0.0000 C   0  0  0  0  0  0  0  0  0  0  0  0
    0.7144    1.4437    0.0000 O   0  0  0  0  0  0  0  0  0  0  0  0
    3.5723    0.6187    0.0000 N   0  0  0  0  0  0  0  0  0  0  0  0
    0.0000    1.8562    0.0000 O   0  0  0  0  0  0  0  0  0  0  0  0
    2.8578   -0.6187    0.0000 O   0  0  0  0  0  0  0  0  0  0  0  0
    0.0000   -1.4437    0.0000 O   0  0  0  0  0  0  0  0  0  0  0  0
    2.8578    1.8562    0.0000 O   0  0  0  0  0  0  0  0  0  0  0  0
   -2.8578   -0.6187    0.0000 C   0  0  0  0  0  0  0  0  0  0  0  0
   -1.4289   -1.4437    0.0000 C   0  0  0  0  0  0  0  0  0  0  0  0
   -2.8578    1.8562    0.0000 O   0  0  0  0  0  0  0  0  0  0  0  0
   -3.5723   -0.2062    0.0000 C   0  0  0  0  0  0  0  0  0  0  0  0
   -3.5723    0.6187    0.0000 C   0  0  0  0  0  0  0  0  0  0  0  0
    2.1433   -1.8562    0.0000 C   0  0  0  0  0  0  0  0  0  0  0  0
    0.7144   -1.8562    0.0000 C   0  0  0  0  0  0  0  0  0  0  0  0
   -0.7144   -1.0312    0.0000 H   0  0  0  0  0  0  0  0  0  0  0  0
    0.7144   -1.0312    0.0000 H   0  0  0  0  0  0  0  0  0  0  0  0
  3  1  1  0
  5  1  1  0
  6  1  1  0
  1 20  1  1
  5  2  2  0
  8  2  1  0
  9  2  1  0
 10  3  1  0
 12  3  1  0
  3 34  1  1
  6  4  1  0
  7  4  2  0
 15  4  1  0
 22  5  1  0
 17  6  2  0
 23  7  1  0
 10  7  1  0
 11  8  1  0
 18  8  2  0
 14  9  1  0
  9 33  1  1
 12  9  1  0
 10 16  1  1
 19 11  2  0
 13 11  1  0
 12 24  1  1
 14 13  1  0
 26 13  2  0
 14 27  1  1
 21 15  1  0
 25 15  2  0
 31 16  1  0
 32 16  1  0
 28 19  1  0
 30 19  1  0
 29 26  1  0
 30 29  2  0
M  END
>  <DATABASE_ID>  (1) 
DB00254

>  <DATABASE_NAME>  (1) 
drugbank

>  <SMILES>  (1) 
[H][C@@]12[C@@H](C)C3=CC=CC(O)=C3C(=O)C1=C(O)[C@]1(O)C(=O)C(C(N)=O)=C(O)[C@@H](N(C)C)[C@]1([H])[C@H]2O

>  <INCHI_IDENTIFIER>  (1) 
InChI=1S/C22H24N2O8/c1-7-8-5-4-6-9(25)11(8)16(26)12-10(7)17(27)14-15(24(2)3)18(28)13(21(23)31)20(30)22(14,32)19(12)29/h4-7,10,14-15,17,25,27-29,32H,1-3H3,(H2,23,31)/t7-,10+,14+,15-,17-,22-/m0/s1

>  <INCHI_KEY>  (1) 
JBIWCJUYHHGXTC-AKNGSSGZSA-N

>  <FORMULA>  (1) 
C22H24N2O8

>  <MOLECULAR_WEIGHT>  (1) 
444.4346

>  <EXACT_MASS>  (1) 
444.153265754

>  <JCHEM_ACCEPTOR_COUNT>  (1) 
9

>  <JCHEM_ATOM_COUNT>  (1) 
56

>  <JCHEM_AVERAGE_POLARIZABILITY>  (1) 
43.646934948494284

>  <JCHEM_BIOAVAILABILITY>  (1) 
1

>  <JCHEM_DONOR_COUNT>  (1) 
6

>  <JCHEM_FORMAL_CHARGE>  (1) 
0

>  <JCHEM_GHOSE_FILTER>  (1) 
0

>  <JCHEM_IUPAC>  (1) 
(4S,4aR,5S,5aR,6R,12aS)-4-(dimethylamino)-3,5,10,12,12a-pentahydroxy-6-methyl-1,11-dioxo-1,4,4a,5,5a,6,11,12a-octahydrotetracene-2-carboxamide

>  <ALOGPS_LOGP>  (1) 
-0.72

>  <JCHEM_LOGP>  (1) 
-3.337123924710148

>  <ALOGPS_LOGS>  (1) 
-2.85

>  <JCHEM_MDDR_LIKE_RULE>  (1) 
0

>  <JCHEM_NUMBER_OF_RINGS>  (1) 
4

>  <JCHEM_PHYSIOLOGICAL_CHARGE>  (1) 
0

>  <JCHEM_PKA>  (1) 
7.398375585243604

>  <JCHEM_PKA_STRONGEST_ACIDIC>  (1) 
3.2650498499118945

>  <JCHEM_PKA_STRONGEST_BASIC>  (1) 
8.330412805054982

>  <JCHEM_POLAR_SURFACE_AREA>  (1) 
181.61999999999998

>  <JCHEM_REFRACTIVITY>  (1) 
113.89189999999999

>  <JCHEM_ROTATABLE_BOND_COUNT>  (1) 
2

>  <JCHEM_RULE_OF_FIVE>  (1) 
0

>  <ALOGPS_SOLUBILITY>  (1) 
6.30e-01 g/l

>  <JCHEM_TRADITIONAL_IUPAC>  (1) 
cetrorelix

>  <JCHEM_VEBER_RULE>  (1) 
0

>  <DRUGBANK_ID>  (1) 
DB00254

>  <SECONDARY_ACCESSION_NUMBERS>  (1) 
APRD00597

>  <DRUG_GROUPS>  (1) 
approved; investigational; vet_approved

>  <GENERIC_NAME>  (1) 
Doxycycline

>  <SYNONYMS>  (1) 
5-hydroxy-α-6-deoxytetracycline; 6-alpha-deoxy-5-oxytetracycline; 6alpha-deoxy-5-oxytetracycline; 6α-deoxy-5-oxytetracycline; Anhydrous doxycycline; Doxiciclina; Doxycyclin; Doxycycline; Doxycycline (anhydrous); Doxycycline anhydrous; Doxycyclinum

>  <PRODUCTS>  (1) 
Acticlate; Acticlate CAP; Adoxa; Ag-doxycycline; Alodox; Alti-doxycycline - Tab 100mg; Alti-doxycycline-cap 100mg; Apo-doxy Cap 100mg; Apo-doxy Tabs 100mg; Apo-doxycycline Modified Release; Apo-doxycycline Mr; Apprilon; Atridox; BenoxylDoxy 30 Kit; BenoxylDoxy 60 Kit; BenzoDox 30 Kit; BenzoDox 60 Kit; Dom-doxycycline; Doryx; Doryx 100mg Cap; Doryx Mpc; Doxy 100; Doxy 100(tm) Doxycycline; Doxycin Cap 100mg; Doxycin Tab 100mg; Doxycyclate Hyclate; Doxycycline; Doxycycline Capsules; Doxycycline Doxycycline; Doxycycline Hyclate; Doxycycline Hyclate Delayed Release; Doxycycline Monohydrate; Doxycycline Tablets; Doxycycline hyclate; Doxycycline-100 Cap 100mg USP; Doxytab; Jamp Doxycycline; Jamp Doxycycline Capsules; Jamp Doxycycline Tablets; LymePak; M-doxycycline; Mondoxyne; Mondoxyne NL; Mondoxyne NL 100mg; Monodox; Morgidox; NicAzel Doxy Kit; Nra-doxycycline; Ntp-doxycycline Capsules; Ntp-doxycycline Tablets; Nu-doxycycline Cap 100mg; Nu-doxycycline Tab 100mg; Ocudox; Okebo; Oracea; PHL-doxycycline; PMS-doxycycline; Penta-doxycycline Tablets; Periostat; Prz-doxycycline; Ratio-doxycycline; Rho-doxycin - Cap 100mg; Rho-doxycin Tabs - 100mg; Rho-doxycycline - Cap 100mg; Rho-doxycycline - Tab 100mg; Sandoz Doxycycline; Targadox; Teva-doxycycline; Vibra-Tabs; Vibramycin Calcium; Vibramycin Cap 100mg; Vibramycin Hyclate; Vibramycin Inj; Vibramycin Monohydrate

>  <INTERNATIONAL_BRANDS>  (1) 
Doxy; Doxycin; Doxylin; Jenacyclin; Microdox; NicAzelDoxyKit; Nu-Doxycycline; Supracyclin; Vibramycin

>  <SALTS>  (1) 
Doxycycline calcium; Doxycycline hyclate; Doxycycline hydrochloride; Doxycycline monohydrate

$$$$
