387
     RDKit          2D

 21 23  0  0  1  0  0  0  0  0999 V2000
    1.9058    0.0000    0.0000 O   0  0  0  0  0  0  0  0  0  0  0  0
    4.7934   -0.7145    0.0000 N   0  0  0  0  0  0  0  0  0  0  0  0
    2.7308    0.8250    0.0000 C   0  0  0  0  0  0  0  0  0  0  0  0
    2.7308    0.0000    0.0000 C   0  0  0  0  0  0  0  0  0  0  0  0
    3.4453    1.2375    0.0000 C   0  0  0  0  0  0  0  0  0  0  0  0
    2.0163    1.2375    0.0000 C   0  0  0  0  0  0  0  0  0  0  0  0
    3.5558    0.0000    0.0000 C   0  0  0  0  0  0  0  0  0  0  0  0
    3.4453    2.0625    0.0000 C   0  0  0  0  0  0  0  0  0  0  0  0
    2.0163    2.0625    0.0000 C   0  0  0  0  0  0  0  0  0  0  0  0
    2.7308    2.4751    0.0000 C   0  0  0  0  0  0  0  0  0  0  0  0
    3.9683   -0.7145    0.0000 C   0  0  0  0  0  0  0  0  0  0  0  0
    2.7308   -0.8250    0.0000 C   0  0  0  0  0  0  0  0  0  0  0  0
    5.2783   -0.0470    0.0000 C   0  0  0  0  0  0  0  0  0  0  0  0
    5.2783   -1.3819    0.0000 C   0  0  0  0  0  0  0  0  0  0  0  0
    6.0629   -0.3020    0.0000 C   0  0  0  0  0  0  0  0  0  0  0  0
    6.0629   -1.1270    0.0000 C   0  0  0  0  0  0  0  0  0  0  0  0
    3.4453   -1.2375    0.0000 C   0  0  0  0  0  0  0  0  0  0  0  0
    2.0163   -1.2375    0.0000 C   0  0  0  0  0  0  0  0  0  0  0  0
    3.4453   -2.0625    0.0000 C   0  0  0  0  0  0  0  0  0  0  0  0
    2.0163   -2.0625    0.0000 C   0  0  0  0  0  0  0  0  0  0  0  0
    2.7308   -2.4751    0.0000 C   0  0  0  0  0  0  0  0  0  0  0  0
  1  4  1  0
  2 11  1  0
  2 13  1  0
  2 14  1  0
  3  4  1  0
  3  5  1  0
  3  6  1  0
  4  7  1  0
  4 12  1  0
  5  8  1  0
  6  9  1  0
  7 11  1  0
  8 10  1  0
  9 10  1  0
 12 17  2  0
 12 18  1  0
 13 15  1  0
 14 16  1  0
 15 16  1  0
 17 19  1  0
 18 20  2  0
 19 21  2  0
 20 21  1  0
M  END
>  <DATABASE_ID>  (1) 
DB00387

>  <DATABASE_NAME>  (1) 
drugbank

>  <SMILES>  (1) 
OC(CCN1CCCC1)(C1CCCCC1)C1=CC=CC=C1

>  <INCHI_IDENTIFIER>  (1) 
InChI=1S/C19H29NO/c21-19(17-9-3-1-4-10-17,18-11-5-2-6-12-18)13-16-20-14-7-8-15-20/h1,3-4,9-10,18,21H,2,5-8,11-16H2

>  <INCHI_KEY>  (1) 
WYDUSKDSKCASEF-UHFFFAOYSA-N

>  <FORMULA>  (1) 
C19H29NO

>  <MOLECULAR_WEIGHT>  (1) 
287.4397

>  <EXACT_MASS>  (1) 
287.224914555

>  <JCHEM_ACCEPTOR_COUNT>  (1) 
2

>  <JCHEM_ATOM_COUNT>  (1) 
50

>  <JCHEM_AVERAGE_NEUTRAL_MICROSPECIES_CHARGE>  (1) 
0.9964384567304345

>  <JCHEM_AVERAGE_POLARIZABILITY>  (1) 
34.43468309794552

>  <JCHEM_BIOAVAILABILITY>  (1) 
1

>  <JCHEM_DONOR_COUNT>  (1) 
1

>  <JCHEM_FORMAL_CHARGE>  (1) 
0

>  <JCHEM_GHOSE_FILTER>  (1) 
1

>  <JCHEM_IUPAC>  (1) 
1-cyclohexyl-1-phenyl-3-(pyrrolidin-1-yl)propan-1-ol

>  <ALOGPS_LOGP>  (1) 
4.13

>  <JCHEM_LOGP>  (1) 
3.7881168286666655

>  <ALOGPS_LOGS>  (1) 
-4.47

>  <JCHEM_MDDR_LIKE_RULE>  (1) 
0

>  <JCHEM_NEUTRAL_CHARGE>  (1) 
1

>  <JCHEM_NUMBER_OF_RINGS>  (1) 
3

>  <JCHEM_PHYSIOLOGICAL_CHARGE>  (1) 
1

>  <JCHEM_PKA_STRONGEST_ACIDIC>  (1) 
13.84003582995925

>  <JCHEM_PKA_STRONGEST_BASIC>  (1) 
9.44682993882947

>  <JCHEM_POLAR_SURFACE_AREA>  (1) 
23.47

>  <JCHEM_REFRACTIVITY>  (1) 
88.60420000000003

>  <JCHEM_ROTATABLE_BOND_COUNT>  (1) 
5

>  <JCHEM_RULE_OF_FIVE>  (1) 
1

>  <ALOGPS_SOLUBILITY>  (1) 
9.84e-03 g/l

>  <JCHEM_TRADITIONAL_IUPAC>  (1) 
tetrahydrofolic acid

>  <JCHEM_VEBER_RULE>  (1) 
1

>  <DRUGBANK_ID>  (1) 
DB00387

>  <SECONDARY_ACCESSION_NUMBERS>  (1) 
APRD00383

>  <DRUG_GROUPS>  (1) 
approved

>  <GENERIC_NAME>  (1) 
Procyclidine

>  <SYNONYMS>  (1) 
1-cyclohexyl-1-phenyl-3-pyrrolidin-1-yl-propan-1-ol hydrochloride; 1-Cyclohexyl-1-phenyl-3-pyrrolidino-1-propanol; Prociclidina; Procyclidin; Procyclidine; Procyclidinum; Tricyclamol

>  <PRODUCTS>  (1) 
Kemadrin; Kemadrin Elx; Kemadrin Tab 5mg; PHL-procyclidine Tablets; Pdp-procyclidine; Pendo-procyclidine; Procyclid Elx; Procyclid Tab 5mg

>  <INTERNATIONAL_BRANDS>  (1) 
Arpicolin; Extranil; Kdrine; Kemadren; Osnervan; Prodine; Proimer

>  <SALTS>  (1) 
Procyclidine hydrochloride

$$$$
