
     RDKit          2D

 42 46  0  0  0  0  0  0  0  0999 V2000
   -5.1066    2.3698    0.0000 C   0  0  0  0  0  0  0  0  0  0  0  0
   -4.3921    1.9573    0.0000 C   0  0  0  0  0  0  0  0  0  0  0  0
   -4.3921    1.1323    0.0000 C   0  0  0  0  0  0  0  0  0  0  0  0
   -5.1066    0.7198    0.0000 C   0  0  0  0  0  0  0  0  0  0  0  0
   -5.8210    1.1323    0.0000 C   0  0  0  0  0  0  0  0  0  0  0  0
   -5.8210    1.9573    0.0000 C   0  0  0  0  0  0  0  0  0  0  0  0
   -0.7091    1.1323    0.0000 N   0  0  0  0  0  0  0  0  0  0  0  0
   -0.7091    1.9573    0.0000 C   0  0  0  0  0  0  0  0  0  0  0  0
    0.0754    0.8774    0.0000 C   0  0  0  0  0  0  0  0  0  0  0  0
   -1.5342    1.1323    0.0000 C   0  0  0  0  0  0  0  0  0  0  0  0
   -1.5342    1.9573    0.0000 C   0  0  0  0  0  0  0  0  0  0  0  0
    0.0754    2.2122    0.0000 S   0  0  0  0  0  0  0  0  0  0  0  0
    0.5603    1.5448    0.0000 C   0  0  0  0  0  0  0  0  0  0  0  0
    0.3302    0.0927    0.0000 C   0  0  0  0  0  0  0  0  0  0  0  0
    1.2791    1.1398    0.0000 C   0  0  0  0  0  0  0  0  0  0  0  0
    1.2791    1.9498    0.0000 C   0  0  0  0  0  0  0  0  0  0  0  0
   -0.2216   -0.5203    0.0000 O   0  0  0  0  0  0  0  0  0  0  0  0
    1.1373   -0.0787    0.0000 O   0  0  0  0  0  0  0  0  0  0  0  0
   -2.2487    2.3698    0.0000 N   0  0  0  0  0  0  0  0  0  0  0  0
   -2.9631    1.9573    0.0000 C   0  0  0  0  0  0  0  0  0  0  0  0
   -3.6777    2.3698    0.0000 C   0  0  0  0  0  0  0  0  0  0  0  0
   -2.9631    1.1323    0.0000 O   0  0  0  0  0  0  0  0  0  0  0  0
   -3.6777    3.1948    0.0000 N   0  0  0  0  0  0  0  0  0  0  0  0
   -2.1176    0.5489    0.0000 O   0  0  0  0  0  0  0  0  0  0  0  0
   -0.7091    2.7823    0.0000 H   0  0  0  0  0  0  0  0  0  0  0  0
    4.4128   -1.2898    0.0000 N   0  0  0  0  0  0  0  0  0  0  0  0
    4.4128   -2.1148    0.0000 C   0  0  0  0  0  0  0  0  0  0  0  0
    3.6280   -1.0349    0.0000 C   0  0  0  0  0  0  0  0  0  0  0  0
    5.2378   -1.2898    0.0000 C   0  0  0  0  0  0  0  0  0  0  0  0
    5.2378   -2.1148    0.0000 C   0  0  0  0  0  0  0  0  0  0  0  0
    3.6280   -2.3697    0.0000 S   0  0  0  0  0  0  0  0  0  0  0  0
    3.1432   -1.7023    0.0000 C   0  0  0  0  0  0  0  0  0  0  0  0
    3.3731   -0.2502    0.0000 C   0  0  0  0  0  0  0  0  0  0  0  0
    2.4245   -1.2973    0.0000 C   0  0  0  0  0  0  0  0  0  0  0  0
    2.4245   -2.1073    0.0000 C   0  0  0  0  0  0  0  0  0  0  0  0
    3.9252    0.3628    0.0000 O   0  0  0  0  0  0  0  0  0  0  0  0
    2.5661   -0.0787    0.0000 O   0  0  0  0  0  0  0  0  0  0  0  0
    5.8210   -0.7064    0.0000 O   0  0  0  0  0  0  0  0  0  0  0  0
    4.4128   -2.9398    0.0000 H   0  0  0  0  0  0  0  0  0  0  0  0
    3.6280   -3.1948    0.0000 O   0  0  0  0  0  0  0  0  0  0  0  0
    2.9137   -2.7822    0.0000 O   0  0  0  0  0  0  0  0  0  0  0  0
    1.8518   -0.4912    0.0000 C   0  0  0  0  0  0  0  0  0  0  0  0
  6  1  2  0
  1  2  1  0
  2 21  1  0
  3  2  2  0
  4  3  1  0
  5  6  1  0
  5  4  2  0
  8  7  1  0
  9  7  1  0
 10  7  1  0
  8 11  1  0
  8 12  1  0
 13  9  1  0
  9 14  1  6
 11 10  1  0
 11 19  1  1
 13 12  1  0
 15 13  1  0
 16 13  1  0
 17 14  2  0
 18 14  1  0
 20 19  1  0
 21 20  1  0
 22 20  2  0
 21 23  1  1
 10 24  2  0
  8 25  1  6
 27 26  1  0
 28 26  1  0
 29 26  1  0
 27 30  1  0
 27 31  1  0
 32 28  1  0
 28 33  1  6
 30 29  1  0
 32 31  1  0
 34 32  1  0
 35 32  1  0
 36 33  2  0
 37 33  1  0
 29 38  2  0
 27 39  1  6
 31 40  2  0
 31 41  2  0
 18 42  1  0
 37 42  1  0
M  END
>  <DATABASE_ID>  (1) 
DB12127

>  <DATABASE_NAME>  (1) 
drugbank

>  <SMILES>  (1) 
[H][C@]12SC(C)(C)[C@@H](N1C(=O)[C@H]2NC(=O)[C@H](N)C1=CC=CC=C1)C(=O)OCOC(=O)[C@@H]1N2C(=O)C[C@@]2([H])S(=O)(=O)C1(C)C

>  <INCHI_IDENTIFIER>  (1) 
InChI=1S/C25H30N4O9S2/c1-24(2)17(29-20(32)16(21(29)39-24)27-19(31)15(26)12-8-6-5-7-9-12)22(33)37-11-38-23(34)18-25(3,4)40(35,36)14-10-13(30)28(14)18/h5-9,14-18,21H,10-11,26H2,1-4H3,(H,27,31)/t14-,15-,16-,17+,18+,21-/m1/s1

>  <INCHI_KEY>  (1) 
OPYGFNJSCUDTBT-PMLPCWDUSA-N

>  <FORMULA>  (1) 
C25H30N4O9S2

>  <MOLECULAR_WEIGHT>  (1) 
594.65

>  <EXACT_MASS>  (1) 
594.14542091

>  <JCHEM_ACCEPTOR_COUNT>  (1) 
8

>  <JCHEM_ATOM_COUNT>  (1) 
70

>  <JCHEM_AVERAGE_NEUTRAL_MICROSPECIES_CHARGE>  (1) 
0.6285493755671763

>  <JCHEM_AVERAGE_POLARIZABILITY>  (1) 
58.75508104977183

>  <JCHEM_BIOAVAILABILITY>  (1) 
1

>  <JCHEM_DONOR_COUNT>  (1) 
2

>  <JCHEM_FORMAL_CHARGE>  (1) 
0

>  <JCHEM_GHOSE_FILTER>  (1) 
0

>  <JCHEM_IUPAC>  (1) 
[(2S,5R,6R)-6-[(2R)-2-amino-2-phenylacetamido]-3,3-dimethyl-7-oxo-4-thia-1-azabicyclo[3.2.0]heptane-2-carbonyloxy]methyl (2S,5R)-3,3-dimethyl-4,4,7-trioxo-4lambda6-thia-1-azabicyclo[3.2.0]heptane-2-carboxylate

>  <ALOGPS_LOGP>  (1) 
1.55

>  <JCHEM_LOGP>  (1) 
-0.4024037763333319

>  <ALOGPS_LOGS>  (1) 
-3.32

>  <JCHEM_MDDR_LIKE_RULE>  (1) 
1

>  <JCHEM_NEUTRAL_CHARGE>  (1) 
1

>  <JCHEM_NUMBER_OF_RINGS>  (1) 
5

>  <JCHEM_PHYSIOLOGICAL_CHARGE>  (1) 
1

>  <JCHEM_PKA>  (1) 
14.348842544147177

>  <JCHEM_PKA_STRONGEST_ACIDIC>  (1) 
11.707901143576063

>  <JCHEM_PKA_STRONGEST_BASIC>  (1) 
7.228474831473878

>  <JCHEM_POLAR_SURFACE_AREA>  (1) 
182.47999999999996

>  <JCHEM_REFRACTIVITY>  (1) 
138.1167

>  <JCHEM_ROTATABLE_BOND_COUNT>  (1) 
9

>  <JCHEM_RULE_OF_FIVE>  (1) 
0

>  <ALOGPS_SOLUBILITY>  (1) 
2.83e-01 g/l

>  <JCHEM_TRADITIONAL_IUPAC>  (1) 
(5Z,7E)-deca-5,7,9-trien-2-one

>  <JCHEM_VEBER_RULE>  (1) 
0

>  <DRUGBANK_ID>  (1) 
DB12127

>  <DRUG_GROUPS>  (1) 
approved; withdrawn

>  <GENERIC_NAME>  (1) 
Sultamicillin

>  <SYNONYMS>  (1) 
Sultamicilina; Sultamicillin; Sultamicillinum

>  <SALTS>  (1) 
Sultamicillin hydrochloride; Sultamicillin tosilate

$$$$
