
     RDKit          2D

 14 13  0  0  0  0  0  0  0  0999 V2000
   -0.1710    0.1996    0.0000 C   0  0  0  0  0  0  0  0  0  0  0  0
   -1.6171    0.1996    0.0000 C   0  0  0  0  0  0  0  0  0  0  0  0
   -0.8983   -0.2053    0.0000 C   0  0  0  0  0  0  0  0  0  0  0  0
   -0.1710    1.0126    0.0000 O   0  0  0  0  0  0  0  0  0  0  0  0
    0.5191   -0.2053    0.0000 N   0  0  0  0  0  0  0  0  0  0  0  0
   -0.8983   -1.0182    0.0000 O   0  0  0  0  0  0  0  0  0  0  0  0
   -2.3786    0.6160    0.0000 C   0  0  0  0  0  0  0  0  0  0  0  0
    1.9594   -0.2053    0.0000 C   0  0  0  0  0  0  0  0  0  0  0  0
   -2.3529   -0.3508    0.0000 C   0  0  0  0  0  0  0  0  0  0  0  0
   -1.6285    1.0181    0.0000 C   0  0  0  0  0  0  0  0  0  0  0  0
   -3.2713    0.0342    0.0000 O   0  0  0  0  0  0  0  0  0  0  0  0
    3.2713   -0.1369    0.0000 O   0  0  0  0  0  0  0  0  0  0  0  0
    1.2407    0.1996    0.0000 C   0  0  0  0  0  0  0  0  0  0  0  0
    2.6525    0.1996    0.0000 C   0  0  0  0  0  0  0  0  0  0  0  0
  2  3  1  0
  3  1  1  0
  4  1  2  0
  5  1  1  0
  3  6  1  0
  7  2  1  0
  8 13  1  0
  9  2  1  0
 10  2  1  0
 11  7  1  0
 12 14  1  0
 13  5  1  0
 14  8  1  0
M  END
>  <DATABASE_ID>  (1) 
DB11204

>  <DATABASE_NAME>  (1) 
drugbank

>  <SMILES>  (1) 
CC(C)(CO)C(O)C(=O)NCCCO

>  <INCHI_IDENTIFIER>  (1) 
InChI=1S/C9H19NO4/c1-9(2,6-12)7(13)8(14)10-4-3-5-11/h7,11-13H,3-6H2,1-2H3,(H,10,14)

>  <INCHI_KEY>  (1) 
SNPLKNRPJHDVJA-UHFFFAOYSA-N

>  <FORMULA>  (1) 
C9H19NO4

>  <MOLECULAR_WEIGHT>  (1) 
205.254

>  <EXACT_MASS>  (1) 
205.131408096

>  <JCHEM_ACCEPTOR_COUNT>  (1) 
4

>  <JCHEM_ATOM_COUNT>  (1) 
33

>  <JCHEM_AVERAGE_NEUTRAL_MICROSPECIES_CHARGE>  (1) 
-2.07210606676199e-06

>  <JCHEM_AVERAGE_POLARIZABILITY>  (1) 
22.1458706562446

>  <JCHEM_BIOAVAILABILITY>  (1) 
1

>  <JCHEM_DONOR_COUNT>  (1) 
4

>  <JCHEM_FORMAL_CHARGE>  (1) 
0

>  <JCHEM_GHOSE_FILTER>  (1) 
0

>  <JCHEM_IUPAC>  (1) 
2,4-dihydroxy-N-(3-hydroxypropyl)-3,3-dimethylbutanamide

>  <ALOGPS_LOGP>  (1) 
-1.00

>  <JCHEM_LOGP>  (1) 
-1.7005134243333335

>  <ALOGPS_LOGS>  (1) 
-0.23

>  <JCHEM_MDDR_LIKE_RULE>  (1) 
0

>  <JCHEM_NEUTRAL_CHARGE>  (1) 
0

>  <JCHEM_NUMBER_OF_RINGS>  (1) 
0

>  <JCHEM_PHYSIOLOGICAL_CHARGE>  (1) 
0

>  <JCHEM_PKA>  (1) 
15.016110435805928

>  <JCHEM_PKA_STRONGEST_ACIDIC>  (1) 
12.685869948391622

>  <JCHEM_PKA_STRONGEST_BASIC>  (1) 
-2.390706370314997

>  <JCHEM_POLAR_SURFACE_AREA>  (1) 
89.79

>  <JCHEM_REFRACTIVITY>  (1) 
51.8848

>  <JCHEM_ROTATABLE_BOND_COUNT>  (1) 
6

>  <JCHEM_RULE_OF_FIVE>  (1) 
1

>  <ALOGPS_SOLUBILITY>  (1) 
1.21e+02 g/l

>  <JCHEM_TRADITIONAL_IUPAC>  (1) 
exametazime

>  <JCHEM_VEBER_RULE>  (1) 
0

>  <DRUGBANK_ID>  (1) 
DB11204

>  <DRUG_GROUPS>  (1) 
approved

>  <GENERIC_NAME>  (1) 
Panthenol

>  <SYNONYMS>  (1) 
DL-panthenol; DL-Pantothenol; Pantenol; Panthenol; Panthenolum

>  <PRODUCTS>  (1) 
24 Alopecia Reliefshampoo; 574H Cell Care; AAPE Hair Ampoule; Add More Hair; Adeks - Dps; Aewajin HasuoShampoo; Ahc Hydra B5 Soother; Ahc Hydra B5 Soother (red); Ahc Premium Hydra Soother Cellulose Mask; Ahc Radiance Gommage Peeling; All New TS; Anbiser B-HA Hyaluronic Acid Nourishing; Ato Standard Intensivecream; Atomy Hair Treatment; BABOR BODY LINE THERMAL Firming Body; BABOR Baborganic Age Preventing Body Cream; BABOR Baborganic Calm and Relax; BABOR CLEANSING Mild Cleanser; BABOR HSR Lifting Decollete Mask; BABOR HSR Lifting Decollete Mask CP; BABOR SKINOVAGE OXYGEN Energizing CP; BABOR Selection Ultimate Care; BABOR Stop Cellulite; BANACOS Centellamide Cica Peptidecream; Babor Body Line Thermal Smooth Effect Body; Black Head Remover; Bonnoir Hair Medi; Bonogen Plus hair care shampoo; Bonogen hair care shampoo; Born Hair; Brextem H; CH6 Color Change Black Aloforthya; CH6 Ginger Beer Anti Hair Loss Scalp; Calming Skin; Carione Rg; Cellapy A.Repair Plus; Cellapy Haircell; Cellapy Haircell Meso Tonic; Ceracos The Black; Ceracos The Black Hair Tonic; Claon All 4 Cleanser; Cream; Curestem Cell Healer C10 Program; Curestem Cell Healer C5 Program; DR. BABOR DERMA CELLULAR Ultimate Firming Eye; DR. BABOR Ultimate Vitamin CP; Doll Lash; Dong Sung Anti-Hair Loss; Dong Sung Monelyn; Dr.Graft; EH Hair Plus Regeneration Hair Care; EH Plus H2CO3 Cool; ELF Perm; Easter Scalp Tonic; Elastine Hair Gain; Elastine Hair Gain Scalp Antiaging Conditioner; Elastine Hair Gain Treatment; Eron Healing Tonic; Foasu Jin Powderwash; Gentle Therapy; Gentle Therapy Treatment; Green Toner; HAIRNA Care; HAIRNA Care Toner; HAIRNA Care Treatment; HWASAMONG Dr.All Scalp HealingShampoo; Hair Color Wax; Hair Loss Defeating Monster; Hair Loss Defeating Monster Premium; Hair Loss Defeating Monster Premium Scalp Serum; Hair Loss Defeating Monster Scalp Serum; Hair-loss Recovery Conditioner; IDENEL Light R Tox Daily; IDENEL Revitalizing Eye; Intensive Scal Care Shampoo hair care; Intensive scalp care essence hair care; LACTOMEDI Ferminine Soothing Cream; Lancell hair loss prevention hair grower clean formula; Liquid; M.V.I. 12; MD CELL Scalp; MD CELL Solution; Marine Purifying; Medi All 4 Cleanser; Medi All 4 Cleanser (NIACINAMIDE); Micro Dust Detox; Miracle Of Skin; MoReturn Hair; MoReturn Hair Tonic; MoRreturn Hair Care; Multi 1000; Multi-11; Nawamo Sod Ultrabooster; New Premium Notamo; New Premium Notamo Tonic; Ngf 574h Hair; Ngf 574h Hair Tonic; P1P Chitosan V-mask; P1P Magic Whitening Antiaging; P1P Mela Care; PREMIUM TS Talmostop; PREMIUM TS Talmostop Rich; PURE SELECT Purifying Anti-Aging; PURE SELECT Purifying Anti-Aging CP; Pepplus Special Care; Perilla Fo ti; Perilla Fo ti Conditioner; Phytopecia Hair Boosting; Phytopecia Hair Tonic; Premium Notamo; Premium TS; Primerose White Milky Cb; Purple Toner; Qforet Born To Grow; Qforet Born To Grow Treatment; Re-charge PH; ReEn Hairloss Clinic Jahajin Shampoo for Sensitive Scalp; ReEn Mogangbichaek Conditioner; ReEn Mogangbichaek for Sensitive Scalp; ReOrganic Eyelash Growth Boosting Serum; Red Propolis 30 Vita Ampule; Roota Re F Tonic; Roota Re F for men; Roota Re V Tonic; Roota Re V for women; Rootsallo Advanced Scalp Care Hair; Rut Hair Ageless Clinic Ampoule; Rut Hair Ageless Clinic Plus; Rut Hair Ageless Clinic Treatment Plus; Scal tonic shampoo hair care; Scal-tonic intensive liquid hair care; Scalp Scaling; Shinmo Saengbaleum Hair; Shinmo Saengbaleum Treatment; Soin Solaire Complete SPF30; Solep Premier Hi Gro; Solep Premier Hi Gro Ampoule Pack; Solep Premier Hi Gro Tonic; Stick; Synergy Booster; The Barafu Intensive Serum; The Fact-HFN Cooling Anti-hair Loss TonicGel; Theraphytion Nokmosu; Therapytion Natural Deep Clean; Therapytion Natural Relaxing; Therapytion Nokmosu Hair Tonic; Therapytion Nokmosu Neutral and oily Hair; Therapytion Nokmosu Sensitive and Dry Hair; Vita Volu 101 Essence; Vitabrid C12 Hair Tonic Professional; Vitabrid C12 Hair Tonic Scalp Relief; Vitabrid Scalp; Zaol Doctors Order Scalp Scaling; Zaol Doctors Order Synergy Booster; Zhangguang 101 Hair Follicle Tonic; bdr Protect ultra hydrating anti-pollution skin defense mist; bdr Re-charge N hydro serum maximum skin energizer; bdr Re-charge contour push up serum high-potential moisturizer; bdr Re-fine pore minimizing fluid complex; bdr Re-lax 3 multiple level serum highly-potential youth; bdr Re-set 4D age-repair code; bdr Re-vital PH pure harmony care soothing skin optimizer; bdr Re-vital balance care intense age control; haircop hairDANBI NATURAL

$$$$
