1626
     RDKit          2D

 12 12  0  0  1  0  0  0  0  0999 V2000
    3.0791    0.4909    0.0000 N   0  0  0  0  0  0  0  0  0  0  0  0
    2.3645    0.0784    0.0000 C   0  0  0  0  0  0  0  0  0  0  0  0
    2.3645   -0.7466    0.0000 C   0  0  0  0  0  0  0  0  0  0  0  0
    3.0791    1.3159    0.0000 C   0  0  0  0  0  0  0  0  0  0  0  0
    3.7935    0.0784    0.0000 C   0  0  0  0  0  0  0  0  0  0  0  0
    3.0791   -1.1592    0.0000 C   0  0  0  0  0  0  0  0  0  0  0  0
    1.6500   -1.1592    0.0000 C   0  0  0  0  0  0  0  0  0  0  0  0
    3.0791   -1.9842    0.0000 C   0  0  0  0  0  0  0  0  0  0  0  0
    1.6500   -1.9842    0.0000 C   0  0  0  0  0  0  0  0  0  0  0  0
    2.3645   -2.3967    0.0000 C   0  0  0  0  0  0  0  0  0  0  0  0
    3.7935    1.7284    0.0000 C   0  0  0  0  0  0  0  0  0  0  0  0
    4.5080    2.1409    0.0000 C   0  0  0  0  0  0  0  0  0  0  0  0
  1  2  1  0
  1  4  1  0
  1  5  1  0
  2  3  1  0
  3  6  2  0
  3  7  1  0
  4 11  1  0
  6  8  1  0
  7  9  2  0
  8 10  2  0
  9 10  1  0
 11 12  3  0
M  END
>  <DATABASE_ID>  (1) 
DB01626

>  <DATABASE_NAME>  (1) 
drugbank

>  <SMILES>  (1) 
CN(CC#C)CC1=CC=CC=C1

>  <INCHI_IDENTIFIER>  (1) 
InChI=1S/C11H13N/c1-3-9-12(2)10-11-7-5-4-6-8-11/h1,4-8H,9-10H2,2H3

>  <INCHI_KEY>  (1) 
DPWPWRLQFGFJFI-UHFFFAOYSA-N

>  <FORMULA>  (1) 
C11H13N

>  <MOLECULAR_WEIGHT>  (1) 
159.2276

>  <EXACT_MASS>  (1) 
159.104799421

>  <JCHEM_ACCEPTOR_COUNT>  (1) 
1

>  <JCHEM_ATOM_COUNT>  (1) 
25

>  <JCHEM_AVERAGE_NEUTRAL_MICROSPECIES_CHARGE>  (1) 
0.9180841566745356

>  <JCHEM_AVERAGE_POLARIZABILITY>  (1) 
18.780968705052157

>  <JCHEM_BIOAVAILABILITY>  (1) 
1

>  <JCHEM_DONOR_COUNT>  (1) 
0

>  <JCHEM_FORMAL_CHARGE>  (1) 
0

>  <JCHEM_GHOSE_FILTER>  (1) 
0

>  <JCHEM_IUPAC>  (1) 
benzyl(methyl)(prop-2-yn-1-yl)amine

>  <ALOGPS_LOGP>  (1) 
2.05

>  <JCHEM_LOGP>  (1) 
2.142725628999999

>  <ALOGPS_LOGS>  (1) 
-3.20

>  <JCHEM_MDDR_LIKE_RULE>  (1) 
0

>  <JCHEM_NEUTRAL_CHARGE>  (1) 
1

>  <JCHEM_NUMBER_OF_RINGS>  (1) 
1

>  <JCHEM_PHYSIOLOGICAL_CHARGE>  (1) 
1

>  <JCHEM_PKA_STRONGEST_BASIC>  (1) 
8.049514586175794

>  <JCHEM_POLAR_SURFACE_AREA>  (1) 
3.24

>  <JCHEM_REFRACTIVITY>  (1) 
52.18090000000001

>  <JCHEM_ROTATABLE_BOND_COUNT>  (1) 
3

>  <JCHEM_RULE_OF_FIVE>  (1) 
1

>  <ALOGPS_SOLUBILITY>  (1) 
9.98e-02 g/l

>  <JCHEM_TRADITIONAL_IUPAC>  (1) 
biotin

>  <JCHEM_VEBER_RULE>  (1) 
1

>  <DRUGBANK_ID>  (1) 
DB01626

>  <DRUG_GROUPS>  (1) 
approved

>  <GENERIC_NAME>  (1) 
Pargyline

>  <SYNONYMS>  (1) 
Pargilina; Pargyline; Pargylinum

>  <INTERNATIONAL_BRANDS>  (1) 
Eutonyl; Eutron

>  <SALTS>  (1) 
Pargyline hydrochloride

$$$$
