
     RDKit          2D

 26 26  0  0  1  0  0  0  0  0999 V2000
   -2.2535   -3.0727    0.0000 C   0  0  0  0  0  0  0  0  0  0  0  0
   -2.0820   -2.2658    0.0000 C   0  0  0  0  0  0  0  0  0  0  0  0
   -1.2974   -2.0108    0.0000 C   0  0  0  0  0  0  0  0  0  0  0  0
   -1.1258   -1.2039    0.0000 C   0  0  0  0  0  0  0  0  0  0  0  0
   -0.3412   -0.9489    0.0000 C   0  0  0  0  0  0  0  0  0  0  0  0
   -0.1697   -0.1419    0.0000 C   0  0  0  0  0  0  0  0  0  0  0  0
    0.6373   -0.3135    0.0000 C   0  0  0  0  0  0  0  0  0  0  0  0
   -0.9767    0.0296    0.0000 O   0  0  0  0  0  0  0  0  0  0  0  0
    0.0018    0.6650    0.0000 C   0  0  0  0  0  0  0  0  0  0  0  0
    0.7865    0.9200    0.0000 C   0  0  0  0  0  0  0  0  0  0  0  0
    0.9580    1.7269    0.0000 C   0  0  0  0  0  0  0  0  0  0  0  0
    0.4060    2.3400    0.0000 C   0  0  0  0  0  0  0  0  0  0  0  0
   -0.4145    2.2538    0.0000 O   0  0  0  0  0  0  0  0  0  0  0  0
    0.8185    3.0545    0.0000 C   0  0  0  0  0  0  0  0  0  0  0  0
    1.6254    2.8830    0.0000 C   0  0  0  0  0  0  0  0  0  0  0  0
    2.2385    3.4350    0.0000 O   0  0  0  0  0  0  0  0  0  0  0  0
    1.7117    2.0625    0.0000 C   0  0  0  0  0  0  0  0  0  0  0  0
    2.4261    1.6500    0.0000 C   0  0  0  0  0  0  0  0  0  0  0  0
    2.4261    0.8250    0.0000 C   0  0  0  0  0  0  0  0  0  0  0  0
    3.1406    0.4125    0.0000 C   0  0  0  0  0  0  0  0  0  0  0  0
    3.8551    0.8250    0.0000 C   0  0  0  0  0  0  0  0  0  0  0  0
    4.5695    0.4125    0.0000 C   0  0  0  0  0  0  0  0  0  0  0  0
    5.2840    0.8250    0.0000 C   0  0  0  0  0  0  0  0  0  0  0  0
    5.9985    0.4125    0.0000 C   0  0  0  0  0  0  0  0  0  0  0  0
    6.7130    0.8250    0.0000 O   0  0  0  0  0  0  0  0  0  0  0  0
    5.9985   -0.4125    0.0000 O   0  0  0  0  0  0  0  0  0  0  0  0
  1  2  1  0
  2  3  1  0
  3  4  1  0
  4  5  1  0
  6  5  1  0
  6  7  1  1
  6  8  1  0
  6  9  1  0
  9 10  2  0
 11 10  1  1
 11 12  1  0
 12 13  1  6
 12 14  1  0
 15 14  1  0
 15 16  1  6
 17 15  1  0
 11 17  1  0
 17 18  1  6
 18 19  1  0
 19 20  2  0
 20 21  1  0
 21 22  1  0
 22 23  1  0
 23 24  1  0
 24 25  1  0
 24 26  2  0
M  END
>  <DATABASE_ID>  (1) 
DB19356

>  <DATABASE_NAME>  (1) 
drugbank

>  <SMILES>  (1) 
CCCCC[C@](C)(O)\C=C\[C@H]1[C@H](O)C[C@H](O)[C@@H]1C\C=C/CCCC(O)=O

>  <INCHI_IDENTIFIER>  (1) 
InChI=1S/C21H36O5/c1-3-4-9-13-21(2,26)14-12-17-16(18(22)15-19(17)23)10-7-5-6-8-11-20(24)25/h5,7,12,14,16-19,22-23,26H,3-4,6,8-11,13,15H2,1-2H3,(H,24,25)/b7-5-,14-12+/t16-,17+,18-,19+,21+/m0/s1

>  <INCHI_KEY>  (1) 
DLJKPYFALUEJCK-IIELGFQLSA-N

>  <FORMULA>  (1) 
C21H36O5

>  <MOLECULAR_WEIGHT>  (1) 
368.514

>  <EXACT_MASS>  (1) 
368.256274259

>  <DRUGBANK_ID>  (1) 
DB19356

>  <DRUG_GROUPS>  (1) 
approved

>  <GENERIC_NAME>  (1) 
Carboprost

>  <SYNONYMS>  (1) 
(15s)-15-methyl-pgf2.alpha.; (15s)-15-methylprostaglandin f(sub 2.alpha.); (15s)-15-methylprostaglandin f2.alpha.; (5z,9.alpha.,11.alpha.,13e,15s)-9,11,15-trihydroxy-15-methylprosta-5,13-dien-1-oic acid; (e,z)-(1r,2r,3r,5s)-7-(3,5-dihydroxy-2-((3s)-(3-hydroxy-3-methyl-1-octenyl))cyclopentyl)-5-heptenoic acid; 15-methyl prostaglandin F2α; 15-methyl-pgf2.alpha.; 15-methylprostaglandin f2.alpha.; 15-methylprostaglandin f2beta, (15s)-; 15(S)-15-Methyl Prostaglandin F2α; Prosta-5,13-dien-1-oic acid, 9,11,15-trihydroxy-15-methyl-, (5z,9.alpha.,11.alpha.,13e,15s)-

$$$$
