
     RDKit          2D

  9  9  0  0  0  0  0  0  0  0999 V2000
    0.7145   -0.4125    0.0000 C   0  0  0  0  0  0  0  0  0  0  0  0
    0.0000    0.0000    0.0000 C   0  0  0  0  0  0  0  0  0  0  0  0
    0.0000    0.8250    0.0000 C   0  0  0  0  0  0  0  0  0  0  0  0
    0.7145    1.2375    0.0000 C   0  0  0  0  0  0  0  0  0  0  0  0
    1.4289    0.8250    0.0000 C   0  0  0  0  0  0  0  0  0  0  0  0
    1.4289    0.0000    0.0000 C   0  0  0  0  0  0  0  0  0  0  0  0
    0.7145    2.0625    0.0000 C   0  0  0  0  0  0  0  0  0  0  0  0
    0.0000    2.4750    0.0000 O   0  0  0  0  0  0  0  0  0  0  0  0
    1.4289    2.4750    0.0000 O   0  0  0  0  0  0  0  0  0  0  0  0
  1  2  2  0
  2  3  1  0
  3  4  2  0
  4  5  1  0
  5  6  2  0
  1  6  1  0
  4  7  1  0
  7  8  2  0
  7  9  1  0
M  END
>  <DATABASE_ID>  (1) 
DB03793

>  <DATABASE_NAME>  (1) 
drugbank

>  <SMILES>  (1) 
OC(=O)C1=CC=CC=C1

>  <INCHI_IDENTIFIER>  (1) 
InChI=1S/C7H6O2/c8-7(9)6-4-2-1-3-5-6/h1-5H,(H,8,9)

>  <INCHI_KEY>  (1) 
WPYMKLBDIGXBTP-UHFFFAOYSA-N

>  <FORMULA>  (1) 
C7H6O2

>  <MOLECULAR_WEIGHT>  (1) 
122.123

>  <EXACT_MASS>  (1) 
122.036779433

>  <JCHEM_ACCEPTOR_COUNT>  (1) 
2

>  <JCHEM_ATOM_COUNT>  (1) 
15

>  <JCHEM_AVERAGE_POLARIZABILITY>  (1) 
11.97308273996681

>  <JCHEM_BIOAVAILABILITY>  (1) 
1

>  <JCHEM_DONOR_COUNT>  (1) 
1

>  <JCHEM_FORMAL_CHARGE>  (1) 
0

>  <JCHEM_GHOSE_FILTER>  (1) 
0

>  <JCHEM_IUPAC>  (1) 
benzoic acid

>  <ALOGPS_LOGP>  (1) 
1.72

>  <JCHEM_LOGP>  (1) 
1.630828724

>  <ALOGPS_LOGS>  (1) 
-1.24

>  <JCHEM_MDDR_LIKE_RULE>  (1) 
0

>  <JCHEM_NUMBER_OF_RINGS>  (1) 
1

>  <JCHEM_PHYSIOLOGICAL_CHARGE>  (1) 
-1

>  <JCHEM_PKA_STRONGEST_ACIDIC>  (1) 
4.07523327743486

>  <JCHEM_POLAR_SURFACE_AREA>  (1) 
37.3

>  <JCHEM_REFRACTIVITY>  (1) 
33.3142

>  <JCHEM_ROTATABLE_BOND_COUNT>  (1) 
1

>  <JCHEM_RULE_OF_FIVE>  (1) 
1

>  <ALOGPS_SOLUBILITY>  (1) 
7.08e+00 g/l

>  <JCHEM_TRADITIONAL_IUPAC>  (1) 
benzoic acid

>  <JCHEM_VEBER_RULE>  (1) 
1

>  <DRUGBANK_ID>  (1) 
DB03793

>  <SECONDARY_ACCESSION_NUMBERS>  (1) 
EXPT00675

>  <DRUG_GROUPS>  (1) 
approved; investigational

>  <GENERIC_NAME>  (1) 
Benzoic acid

>  <SYNONYMS>  (1) 
Benzoic acid

>  <PRODUCTS>  (1) 
Ammonul; Camphorated Opium Tincture; Eyelids Wipes; Glycothymoline; HydroGold 9; Hyophen; Larynsol Loz; Methylphen; Mrx Liq; Oriox Cool Breath Oral Rinse Mild; Plax Anti-plaque Dental Rinse; Prosed/DS; S Panax All In One Mist; S Panax Mist; S Panax Mist for Refill; SODIUM PHENYLACETATE and SODIUM BENZOATE; Seo Jeong Ho Hwang Chill Deodorant; Seo Jeong Ho Hwang Chill Mist; Sodium Phenylacetate and Sodium Benzoate; Sodium Phenylacetate and sodium benzoate; Sodium phenylacetate and Sodium benzoate; Uribel Tabs; Urised; Urophen Mb

>  <SALTS>  (1) 
Calcium benzoate; Sodium benzoate

$$$$
