
     RDKit          2D

 23 24  0  0  0  0  0  0  0  0999 V2000
    0.3526    0.8217    0.0000 C   0  0  0  0  0  0  0  0  0  0  0  0
    1.0709    0.4031    0.0000 C   0  0  0  0  0  0  0  0  0  0  0  0
    0.3526    1.6511    0.0000 O   0  0  0  0  0  0  0  0  0  0  0  0
    1.7790    0.8217    0.0000 C   0  0  0  0  0  0  0  0  0  0  0  0
    1.0709   -0.4238    0.0000 C   0  0  0  0  0  0  0  0  0  0  0  0
   -0.3552    0.4031    0.0000 O   0  0  0  0  0  0  0  0  0  0  0  0
   -2.5026    0.8217    0.0000 N   0  0  0  0  0  0  0  0  0  0  0  0
   -1.0762    0.8217    0.0000 C   0  0  0  0  0  0  0  0  0  0  0  0
   -1.7868    0.4108    0.0000 C   0  0  0  0  0  0  0  0  0  0  0  0
    1.7842    1.6459    0.0000 C   0  0  0  0  0  0  0  0  0  0  0  0
    2.5000    0.4031    0.0000 C   0  0  0  0  0  0  0  0  0  0  0  0
    0.3449   -0.8295    0.0000 C   0  0  0  0  0  0  0  0  0  0  0  0
    1.7790   -0.8295    0.0000 C   0  0  0  0  0  0  0  0  0  0  0  0
   -3.2131    0.4108    0.0000 C   0  0  0  0  0  0  0  0  0  0  0  0
   -2.5000    1.6434    0.0000 C   0  0  0  0  0  0  0  0  0  0  0  0
   -3.2131   -0.4185    0.0000 C   0  0  0  0  0  0  0  0  0  0  0  0
   -1.7946    2.0619    0.0000 C   0  0  0  0  0  0  0  0  0  0  0  0
    3.2105    0.8217    0.0000 C   0  0  0  0  0  0  0  0  0  0  0  0
    0.3605   -1.6563    0.0000 C   0  0  0  0  0  0  0  0  0  0  0  0
    1.7868   -1.6588    0.0000 C   0  0  0  0  0  0  0  0  0  0  0  0
    2.4922    2.0542    0.0000 C   0  0  0  0  0  0  0  0  0  0  0  0
    3.2131    1.6434    0.0000 C   0  0  0  0  0  0  0  0  0  0  0  0
    1.0633   -2.0619    0.0000 C   0  0  0  0  0  0  0  0  0  0  0  0
  2  1  1  0
  3  1  2  0
  4  2  1  0
  5  2  1  0
  6  1  1  0
  7  9  1  0
  8  6  1  0
  9  8  1  0
 10  4  2  0
 11  4  1  0
 12  5  2  0
 13  5  1  0
 14  7  1  0
 15  7  1  0
 16 14  1  0
 17 15  1  0
 18 11  2  0
 19 12  1  0
 20 13  2  0
 21 10  1  0
 22 18  1  0
 23 20  1  0
 23 19  2  0
 22 21  2  0
M  END
>  <DATABASE_ID>  (1) 
DB15795

>  <DATABASE_NAME>  (1) 
drugbank

>  <SMILES>  (1) 
CCN(CC)CCOC(=O)C(C1=CC=CC=C1)C1=CC=CC=C1

>  <INCHI_IDENTIFIER>  (1) 
InChI=1S/C20H25NO2/c1-3-21(4-2)15-16-23-20(22)19(17-11-7-5-8-12-17)18-13-9-6-10-14-18/h5-14,19H,3-4,15-16H2,1-2H3

>  <INCHI_KEY>  (1) 
JGOAIQNSOGZNBX-UHFFFAOYSA-N

>  <FORMULA>  (1) 
C20H25NO2

>  <MOLECULAR_WEIGHT>  (1) 
311.425

>  <EXACT_MASS>  (1) 
311.188529049

>  <JCHEM_ACCEPTOR_COUNT>  (1) 
2

>  <JCHEM_ATOM_COUNT>  (1) 
48

>  <JCHEM_AVERAGE_NEUTRAL_MICROSPECIES_CHARGE>  (1) 
0.9999999989086683

>  <JCHEM_AVERAGE_POLARIZABILITY>  (1) 
36.40291794738966

>  <JCHEM_BIOAVAILABILITY>  (1) 
1

>  <JCHEM_DONOR_COUNT>  (1) 
0

>  <JCHEM_FORMAL_CHARGE>  (1) 
0

>  <JCHEM_GHOSE_FILTER>  (1) 
1

>  <JCHEM_IUPAC>  (1) 
2-(diethylamino)ethyl 2,2-diphenylacetate

>  <ALOGPS_LOGP>  (1) 
4.23

>  <JCHEM_LOGP>  (1) 
4.165938843999999

>  <ALOGPS_LOGS>  (1) 
-4.39

>  <JCHEM_MDDR_LIKE_RULE>  (1) 
0

>  <JCHEM_NEUTRAL_CHARGE>  (1) 
1

>  <JCHEM_NUMBER_OF_RINGS>  (1) 
2

>  <JCHEM_PHYSIOLOGICAL_CHARGE>  (1) 
1

>  <JCHEM_PKA_STRONGEST_BASIC>  (1) 
8.962043212759166

>  <JCHEM_POLAR_SURFACE_AREA>  (1) 
29.54

>  <JCHEM_REFRACTIVITY>  (1) 
94.32050000000004

>  <JCHEM_ROTATABLE_BOND_COUNT>  (1) 
9

>  <JCHEM_RULE_OF_FIVE>  (1) 
1

>  <ALOGPS_SOLUBILITY>  (1) 
1.26e-02 g/l

>  <JCHEM_TRADITIONAL_IUPAC>  (1) 
adiphenine

>  <JCHEM_VEBER_RULE>  (1) 
1

>  <DRUGBANK_ID>  (1) 
DB15795

>  <DRUG_GROUPS>  (1) 
approved; withdrawn

>  <GENERIC_NAME>  (1) 
Adiphenine

>  <SYNONYMS>  (1) 
Adiphenine

>  <SALTS>  (1) 
Adiphenine hydrochloride

$$$$
