
     RDKit          2D

  5  4  0  0  0  0  0  0  0  0999 V2000
    0.8250    0.0000    0.0000 I   0  0  0  0  0  0  0  0  0  0  0  0
    0.0000   -0.8250    0.0000 I   0  0  0  0  0  0  0  0  0  0  0  0
    0.0000    0.0000    0.0000 C   0  0  0  0  0  0  0  0  0  0  0  0
    0.0000    0.8250    0.0000 H   0  0  0  0  0  0  0  0  0  0  0  0
   -0.8250    0.0000    0.0000 I   0  0  0  0  0  0  0  0  0  0  0  0
  1  3  1  0
  5  3  1  0
  3  4  1  0
  3  2  1  0
M  END
>  <DATABASE_ID>  (1) 
DB13813

>  <DATABASE_NAME>  (1) 
drugbank

>  <SMILES>  (1) 
[H]C(I)(I)I

>  <INCHI_IDENTIFIER>  (1) 
InChI=1S/CHI3/c2-1(3)4/h1H

>  <INCHI_KEY>  (1) 
OKJPEAGHQZHRQV-UHFFFAOYSA-N

>  <FORMULA>  (1) 
CHI3

>  <MOLECULAR_WEIGHT>  (1) 
393.732

>  <EXACT_MASS>  (1) 
393.72124

>  <JCHEM_ACCEPTOR_COUNT>  (1) 
0

>  <JCHEM_ATOM_COUNT>  (1) 
5

>  <JCHEM_AVERAGE_POLARIZABILITY>  (1) 
17.590720693262767

>  <JCHEM_BIOAVAILABILITY>  (1) 
1

>  <JCHEM_DONOR_COUNT>  (1) 
0

>  <JCHEM_FORMAL_CHARGE>  (1) 
0

>  <JCHEM_GHOSE_FILTER>  (1) 
0

>  <JCHEM_IUPAC>  (1) 
triiodomethane

>  <ALOGPS_LOGP>  (1) 
2.82

>  <JCHEM_LOGP>  (1) 
4.647148779999999

>  <ALOGPS_LOGS>  (1) 
-3.44

>  <JCHEM_MDDR_LIKE_RULE>  (1) 
0

>  <JCHEM_NUMBER_OF_RINGS>  (1) 
0

>  <JCHEM_PHYSIOLOGICAL_CHARGE>  (1) 
0

>  <JCHEM_POLAR_SURFACE_AREA>  (1) 
0.0

>  <JCHEM_REFRACTIVITY>  (1) 
45.2423

>  <JCHEM_ROTATABLE_BOND_COUNT>  (1) 
0

>  <JCHEM_RULE_OF_FIVE>  (1) 
1

>  <ALOGPS_SOLUBILITY>  (1) 
1.43e-01 g/l

>  <JCHEM_TRADITIONAL_IUPAC>  (1) 
iodoform

>  <JCHEM_VEBER_RULE>  (1) 
1

>  <DRUGBANK_ID>  (1) 
DB13813

>  <DRUG_GROUPS>  (1) 
approved; investigational; vet_approved; withdrawn

>  <GENERIC_NAME>  (1) 
Iodoform

>  <SYNONYMS>  (1) 
carbon triiodide; Iodoform; Jodoform; methyl triiodide; triiodomethane

>  <PRODUCTS>  (1) 
Curity 3% Iodoform Packing Strip; Iodoform Nugauze Packing Strip 5%; Iodoform Packing Strip; Iodoform Packing Strip 5% W/w

$$$$
