433
     RDKit          2D

 25 28  0  0  0  0  0  0  0  0999 V2000
    7.8100   -0.9572    0.0000 Cl  0  0  0  0  0  0  0  0  0  0  0  0
    5.0139   -2.5606    0.0000 S   0  0  0  0  0  0  0  0  0  0  0  0
    3.6420    1.3999    0.0000 N   0  0  0  0  0  0  0  0  0  0  0  0
    2.2701    2.1919    0.0000 N   0  0  0  0  0  0  0  0  0  0  0  0
    5.0139   -0.9764    0.0000 N   0  0  0  0  0  0  0  0  0  0  0  0
    2.9561    1.0038    0.0000 C   0  0  0  0  0  0  0  0  0  0  0  0
    3.6420    2.1919    0.0000 C   0  0  0  0  0  0  0  0  0  0  0  0
    4.3280    1.0038    0.0000 C   0  0  0  0  0  0  0  0  0  0  0  0
    2.2701    1.3999    0.0000 C   0  0  0  0  0  0  0  0  0  0  0  0
    2.9561    2.5879    0.0000 C   0  0  0  0  0  0  0  0  0  0  0  0
    4.3280    0.2117    0.0000 C   0  0  0  0  0  0  0  0  0  0  0  0
    5.0139   -0.1844    0.0000 C   0  0  0  0  0  0  0  0  0  0  0  0
    1.5841    2.5879    0.0000 C   0  0  0  0  0  0  0  0  0  0  0  0
    5.6999   -1.3725    0.0000 C   0  0  0  0  0  0  0  0  0  0  0  0
    4.3280   -1.3725    0.0000 C   0  0  0  0  0  0  0  0  0  0  0  0
    5.6999   -2.1645    0.0000 C   0  0  0  0  0  0  0  0  0  0  0  0
    4.3280   -2.1645    0.0000 C   0  0  0  0  0  0  0  0  0  0  0  0
    6.4080   -0.9489    0.0000 C   0  0  0  0  0  0  0  0  0  0  0  0
    3.6199   -0.9489    0.0000 C   0  0  0  0  0  0  0  0  0  0  0  0
    6.4080   -2.5879    0.0000 C   0  0  0  0  0  0  0  0  0  0  0  0
    3.6199   -2.5879    0.0000 C   0  0  0  0  0  0  0  0  0  0  0  0
    7.1257   -1.3560    0.0000 C   0  0  0  0  0  0  0  0  0  0  0  0
    2.9022   -1.3560    0.0000 C   0  0  0  0  0  0  0  0  0  0  0  0
    7.1257   -2.1810    0.0000 C   0  0  0  0  0  0  0  0  0  0  0  0
    2.9022   -2.1810    0.0000 C   0  0  0  0  0  0  0  0  0  0  0  0
  1 22  1  0
  2 16  1  0
  2 17  1  0
  3  6  1  0
  3  7  1  0
  3  8  1  0
  4  9  1  0
  4 10  1  0
  4 13  1  0
  5 12  1  0
  5 14  1  0
  5 15  1  0
  6  9  1  0
  7 10  1  0
  8 11  1  0
 11 12  1  0
 14 16  2  0
 14 18  1  0
 15 17  2  0
 15 19  1  0
 16 20  1  0
 17 21  1  0
 18 22  2  0
 19 23  2  0
 20 24  2  0
 21 25  2  0
 22 24  1  0
 23 25  1  0
M  END
>  <DATABASE_ID>  (1) 
DB00433

>  <DATABASE_NAME>  (1) 
drugbank

>  <SMILES>  (1) 
CN1CCN(CCCN2C3=CC=CC=C3SC3=C2C=C(Cl)C=C3)CC1

>  <INCHI_IDENTIFIER>  (1) 
InChI=1S/C20H24ClN3S/c1-22-11-13-23(14-12-22)9-4-10-24-17-5-2-3-6-19(17)25-20-8-7-16(21)15-18(20)24/h2-3,5-8,15H,4,9-14H2,1H3

>  <INCHI_KEY>  (1) 
WIKYUJGCLQQFNW-UHFFFAOYSA-N

>  <FORMULA>  (1) 
C20H24ClN3S

>  <MOLECULAR_WEIGHT>  (1) 
373.943

>  <EXACT_MASS>  (1) 
373.13794618

>  <JCHEM_ACCEPTOR_COUNT>  (1) 
3

>  <JCHEM_ATOM_COUNT>  (1) 
49

>  <JCHEM_AVERAGE_NEUTRAL_MICROSPECIES_CHARGE>  (1) 
0.9069180422440141

>  <JCHEM_AVERAGE_POLARIZABILITY>  (1) 
41.76560285764089

>  <JCHEM_BIOAVAILABILITY>  (1) 
1

>  <JCHEM_DONOR_COUNT>  (1) 
0

>  <JCHEM_FORMAL_CHARGE>  (1) 
0

>  <JCHEM_GHOSE_FILTER>  (1) 
1

>  <JCHEM_IUPAC>  (1) 
2-chloro-10-[3-(4-methylpiperazin-1-yl)propyl]-10H-phenothiazine

>  <ALOGPS_LOGP>  (1) 
4.67

>  <JCHEM_LOGP>  (1) 
4.382119821333332

>  <ALOGPS_LOGS>  (1) 
-4.53

>  <JCHEM_MDDR_LIKE_RULE>  (1) 
0

>  <JCHEM_NEUTRAL_CHARGE>  (1) 
1

>  <JCHEM_NUMBER_OF_RINGS>  (1) 
4

>  <JCHEM_PHYSIOLOGICAL_CHARGE>  (1) 
1

>  <JCHEM_PKA_STRONGEST_BASIC>  (1) 
7.988642016898769

>  <JCHEM_POLAR_SURFACE_AREA>  (1) 
9.72

>  <JCHEM_REFRACTIVITY>  (1) 
109.80640000000001

>  <JCHEM_ROTATABLE_BOND_COUNT>  (1) 
4

>  <JCHEM_RULE_OF_FIVE>  (1) 
1

>  <ALOGPS_SOLUBILITY>  (1) 
1.10e-02 g/l

>  <JCHEM_TRADITIONAL_IUPAC>  (1) 
biotin

>  <JCHEM_VEBER_RULE>  (1) 
1

>  <DRUGBANK_ID>  (1) 
DB00433

>  <SECONDARY_ACCESSION_NUMBERS>  (1) 
APRD00624

>  <DRUG_GROUPS>  (1) 
approved; investigational; vet_approved

>  <GENERIC_NAME>  (1) 
Prochlorperazine

>  <SYNONYMS>  (1) 
2-Chloro-10-(3-(1-methyl-4-piperazinyl)propyl)-phenothiazine; 2-Chloro-10-(3-(4-methyl-1-piperazinyl)propyl)phenothiazine; 3-Chloro-10-(3-(1-methyl-4-piperazinyl)propyl)phenothiazine; 3-Chloro-10-(3-(4-methyl-1-piperazinyl)propyl)phenothiazine; Capazine; Chlormeprazine; Chloro-3 (N-methylpiperazinyl-3 propyl)-10 phenothiazine; Chloropernazine; N-(gamma-(4'-Methylpiperazinyl-1')propyl)-3-chlorophenothiazine; Prochlorperazin; Prochlorpérazine; Prochlorperazine; Prochlorperazinum; Prochlorpermazine; Prochlorpromazine; Procloperazine; Proclorperazina

>  <PRODUCTS>  (1) 
Compazine; Compro; Nu-prochlor Tab 10mg; Nu-prochlor Tab 5mg; Odan-prochlorperazine; PMS Prochlorperazine Inj 5mg/ml; PMS-prochlorperazine Suppositoires 10mg; PMS-prochlorperazine Tab 10mg; PMS-prochlorperazine Tab 5mg; Prochlorazine; Prochlorperazine; Prochlorperazine Edisylate; Prochlorperazine Maleate; Prochlorperazine Mesylate Inj 5mg/ml; Stemetil; Stemetil Liq 5mg/5ml; Stemetil Tab 10mg; Stemetil Tab 5mg

>  <INTERNATIONAL_BRANDS>  (1) 
Buccastem; Emetiral; Stemzine; Volimin

>  <SALTS>  (1) 
Prochlorperazine edisylate; Prochlorperazine maleate; Prochlorperazine mesilate

$$$$
