
     RDKit          2D

  8  7  0  0  0  0  0  0  0  0999 V2000
   -0.1914    0.7145    0.0000 C   0  0  0  0  0  0  0  0  0  0  0  0
    0.5230    1.1270    0.0000 C   0  0  0  0  0  0  0  0  0  0  0  0
    1.2375    0.7145    0.0000 C   0  0  0  0  0  0  0  0  0  0  0  0
    1.2375   -0.1105    0.0000 C   0  0  0  0  0  0  0  0  0  0  0  0
    1.9520    1.1270    0.0000 C   0  0  0  0  0  0  0  0  0  0  0  0
    2.6664    0.7145    0.0000 C   0  0  0  0  0  0  0  0  0  0  0  0
    3.3809    1.1270    0.0000 C   0  0  0  0  0  0  0  0  0  0  0  0
    2.6664   -0.1105    0.0000 N   0  0  0  0  0  0  0  0  0  0  0  0
  1  2  1  0
  2  3  1  0
  3  4  1  0
  3  5  1  0
  5  6  1  0
  6  7  1  0
  6  8  1  0
M  END
>  <DATABASE_ID>  (1) 
DB19370

>  <DATABASE_NAME>  (1) 
drugbank

>  <SMILES>  (1) 
CCC(C)CC(C)N

>  <INCHI_IDENTIFIER>  (1) 
InChI=1S/C7H17N/c1-4-6(2)5-7(3)8/h6-7H,4-5,8H2,1-3H3

>  <INCHI_KEY>  (1) 
YAHRDLICUYEDAU-UHFFFAOYSA-N

>  <FORMULA>  (1) 
C7H17N

>  <MOLECULAR_WEIGHT>  (1) 
115.22

>  <EXACT_MASS>  (1) 
115.136099551

>  <DRUGBANK_ID>  (1) 
DB19370

>  <DRUG_GROUPS>  (1) 
approved; withdrawn

>  <GENERIC_NAME>  (1) 
Methylhexaneamine

>  <SYNONYMS>  (1) 
1,3-dimethylamylamine; 2-amino-4-methylhexane; 4-methyl-2-hexanamine; Dimethylamylamine; Floradrene; Forthane; Geranamine; Methylhexanamine

>  <SALTS>  (1) 
Methylhexanamine hydrochloride

$$$$
