
     RDKit          2D

 16 16  0  0  0  0  0  0  0  0999 V2000
    3.5724    5.3625    0.0000 C   0  0  0  0  0  0  0  0  0  0  0  0
   -2.8579    2.4750    0.0000 C   0  0  0  0  0  0  0  0  0  0  0  0
    2.8579    4.9500    0.0000 C   0  0  0  0  0  0  0  0  0  0  0  0
    1.4289    2.4750    0.0000 C   0  0  0  0  0  0  0  0  0  0  0  0
    0.7145    3.7125    0.0000 C   0  0  0  0  0  0  0  0  0  0  0  0
    2.1434    2.8875    0.0000 C   0  0  0  0  0  0  0  0  0  0  0  0
    1.4289    4.1250    0.0000 C   0  0  0  0  0  0  0  0  0  0  0  0
   -1.4289    2.4750    0.0000 C   0  0  0  0  0  0  0  0  0  0  0  0
   -2.1434    2.8875    0.0000 C   0  0  0  0  0  0  0  0  0  0  0  0
    0.7145    2.8875    0.0000 C   0  0  0  0  0  0  0  0  0  0  0  0
    2.1434    3.7125    0.0000 C   0  0  0  0  0  0  0  0  0  0  0  0
   -0.7145    2.8875    0.0000 C   0  0  0  0  0  0  0  0  0  0  0  0
    0.0000    2.4750    0.0000 N   0  0  0  0  0  0  0  0  0  0  0  0
   -2.1434    3.7125    0.0000 O   0  0  0  0  0  0  0  0  0  0  0  0
   -0.7145    3.7125    0.0000 O   0  0  0  0  0  0  0  0  0  0  0  0
    2.8579    4.1250    0.0000 O   0  0  0  0  0  0  0  0  0  0  0  0
  3  1  1  0
  6  4  2  0
  7  5  1  0
  9  2  1  0
  9  8  1  0
 10  4  1  0
 10  5  2  0
 11  6  1  0
 11  7  2  0
 12  8  1  0
 13 10  1  0
 13 12  1  0
 14  9  1  0
 15 12  2  0
 16  3  1  0
 16 11  1  0
M  END
>  <DATABASE_ID>  (1) 
DB13278

>  <DATABASE_NAME>  (1) 
drugbank

>  <SMILES>  (1) 
CCOC1=CC=C(NC(=O)CC(C)O)C=C1

>  <INCHI_IDENTIFIER>  (1) 
InChI=1S/C12H17NO3/c1-3-16-11-6-4-10(5-7-11)13-12(15)8-9(2)14/h4-7,9,14H,3,8H2,1-2H3,(H,13,15)

>  <INCHI_KEY>  (1) 
LIAWQASKBFCRNR-UHFFFAOYSA-N

>  <FORMULA>  (1) 
C12H17NO3

>  <MOLECULAR_WEIGHT>  (1) 
223.272

>  <EXACT_MASS>  (1) 
223.120843411

>  <JCHEM_ACCEPTOR_COUNT>  (1) 
3

>  <JCHEM_ATOM_COUNT>  (1) 
33

>  <JCHEM_AVERAGE_POLARIZABILITY>  (1) 
24.735730013137903

>  <JCHEM_BIOAVAILABILITY>  (1) 
1

>  <JCHEM_DONOR_COUNT>  (1) 
2

>  <JCHEM_FORMAL_CHARGE>  (1) 
0

>  <JCHEM_GHOSE_FILTER>  (1) 
1

>  <JCHEM_IUPAC>  (1) 
N-(4-ethoxyphenyl)-3-hydroxybutanamide

>  <ALOGPS_LOGP>  (1) 
1.39

>  <JCHEM_LOGP>  (1) 
1.2464325873333337

>  <ALOGPS_LOGS>  (1) 
-2.01

>  <JCHEM_MDDR_LIKE_RULE>  (1) 
0

>  <JCHEM_NUMBER_OF_RINGS>  (1) 
1

>  <JCHEM_PHYSIOLOGICAL_CHARGE>  (1) 
0

>  <JCHEM_PKA>  (1) 
15.700032239753298

>  <JCHEM_PKA_STRONGEST_ACIDIC>  (1) 
14.577763623212089

>  <JCHEM_PKA_STRONGEST_BASIC>  (1) 
-2.604390669563262

>  <JCHEM_POLAR_SURFACE_AREA>  (1) 
58.56

>  <JCHEM_REFRACTIVITY>  (1) 
62.9532

>  <JCHEM_ROTATABLE_BOND_COUNT>  (1) 
5

>  <JCHEM_RULE_OF_FIVE>  (1) 
1

>  <ALOGPS_SOLUBILITY>  (1) 
2.17e+00 g/l

>  <JCHEM_TRADITIONAL_IUPAC>  (1) 
bucetin

>  <JCHEM_VEBER_RULE>  (1) 
0

>  <DRUGBANK_ID>  (1) 
DB13278

>  <DRUG_GROUPS>  (1) 
approved; withdrawn

>  <GENERIC_NAME>  (1) 
Bucetin

>  <SYNONYMS>  (1) 
Bucetin

$$$$
