
     RDKit          2D

 10 10  0  0  0  0  0  0  0  0999 V2000
   -0.7500    1.1375    0.0000 C   0  0  0  0  0  0  0  0  0  0  0  0
   -1.4645    0.7250    0.0000 C   0  0  0  0  0  0  0  0  0  0  0  0
   -1.4645   -0.1000    0.0000 C   0  0  0  0  0  0  0  0  0  0  0  0
   -0.0355    0.7250    0.0000 C   0  0  0  0  0  0  0  0  0  0  0  0
   -0.7500   -0.5125    0.0000 N   0  0  0  0  0  0  0  0  0  0  0  0
   -0.7500   -1.3375    0.0000 C   0  0  0  0  0  0  0  0  0  0  0  0
   -0.0355   -0.1000    0.0000 C   0  0  0  0  0  0  0  0  0  0  0  0
    0.6789   -0.5125    0.0000 C   0  0  0  0  0  0  0  0  0  0  0  0
    1.3934   -0.1000    0.0000 N   0  0  0  0  0  0  0  0  0  0  0  0
    2.1079   -0.5125    0.0000 O   0  0  0  0  0  0  0  0  0  0  0  0
  1  2  2  0
  1  4  1  0
  2  3  1  0
  3  5  2  0
  5  7  1  0
  7  4  2  0
  5  6  1  0
  7  8  1  0
  8  9  2  0
  9 10  1  0
M  CHG  1   5   1
M  END
>  <DATABASE_ID>  (1) 
DB00733

>  <DATABASE_NAME>  (1) 
drugbank

>  <SMILES>  (1) 
C[N+]1=C(\C=N\O)C=CC=C1

>  <INCHI_IDENTIFIER>  (1) 
InChI=1S/C7H8N2O/c1-9-5-3-2-4-7(9)6-8-10/h2-6H,1H3/p+1

>  <INCHI_KEY>  (1) 
JBKPUQTUERUYQE-UHFFFAOYSA-O

>  <FORMULA>  (1) 
C7H9N2O

>  <MOLECULAR_WEIGHT>  (1) 
137.1592

>  <EXACT_MASS>  (1) 
137.07148792

>  <JCHEM_ACCEPTOR_COUNT>  (1) 
2

>  <JCHEM_ATOM_COUNT>  (1) 
19

>  <JCHEM_AVERAGE_NEUTRAL_MICROSPECIES_CHARGE>  (1) 
0.8103121060025276

>  <JCHEM_AVERAGE_POLARIZABILITY>  (1) 
14.440491003014621

>  <JCHEM_BIOAVAILABILITY>  (1) 
1

>  <JCHEM_DONOR_COUNT>  (1) 
1

>  <JCHEM_FORMAL_CHARGE>  (1) 
1

>  <JCHEM_GHOSE_FILTER>  (1) 
0

>  <JCHEM_IUPAC>  (1) 
2-[(E)-(hydroxyimino)methyl]-1-methylpyridin-1-ium

>  <ALOGPS_LOGP>  (1) 
-3.04

>  <JCHEM_LOGP>  (1) 
-3.257118933138412

>  <ALOGPS_LOGS>  (1) 
-3.07

>  <JCHEM_MDDR_LIKE_RULE>  (1) 
0

>  <JCHEM_NEUTRAL_CHARGE>  (1) 
1

>  <JCHEM_NUMBER_OF_RINGS>  (1) 
1

>  <JCHEM_PHYSIOLOGICAL_CHARGE>  (1) 
1

>  <JCHEM_PKA_STRONGEST_ACIDIC>  (1) 
7.630612761228712

>  <JCHEM_PKA_STRONGEST_BASIC>  (1) 
-1.1289705519918134

>  <JCHEM_POLAR_SURFACE_AREA>  (1) 
36.47

>  <JCHEM_REFRACTIVITY>  (1) 
40.326499999999996

>  <JCHEM_ROTATABLE_BOND_COUNT>  (1) 
1

>  <JCHEM_RULE_OF_FIVE>  (1) 
1

>  <ALOGPS_SOLUBILITY>  (1) 
1.49e-01 g/l

>  <JCHEM_TRADITIONAL_IUPAC>  (1) 
tetrahydrofolic acid

>  <JCHEM_VEBER_RULE>  (1) 
1

>  <DRUGBANK_ID>  (1) 
DB00733

>  <SECONDARY_ACCESSION_NUMBERS>  (1) 
APRD01193

>  <DRUG_GROUPS>  (1) 
approved; vet_approved

>  <GENERIC_NAME>  (1) 
Pralidoxime

>  <SYNONYMS>  (1) 
2-PAM; Pralidoxim; Pralidoxima; Pralidoxime; Pralidoximum

>  <PRODUCTS>  (1) 
ATNAA atropine and pralidoxime chloride Auto-Injector; DuoDote; Pralidoxime Chloride; Protopam Chloride; Protopam Chloride - (pws 1g/vial); Protopam Chloride Inj 1gm

>  <INTERNATIONAL_BRANDS>  (1) 
ComboPen; Contrathion; Nispam; Pamcl; Pampara; Pamu; Protopam

>  <SALTS>  (1) 
Pralidoxime chloride; Pralidoxime methyl sulfate

$$$$
