
     RDKit          2D

  3  0  0  0  0  0  0  0  0  0999 V2000
    1.0312   -0.0062    0.0000 Cl  0  0  0  0  0  0  0  0  0  0  0  0
   -1.0312   -0.0062    0.0000 Cl  0  0  0  0  0  0  0  0  0  0  0  0
   -0.1062    0.0062    0.0000 Zn  0  0  0  0  0 15  0  0  0  0  0  0
M  CHG  3   1  -1   2  -1   3   2
M  END
>  <DATABASE_ID>  (1) 
DB14533

>  <DATABASE_NAME>  (1) 
drugbank

>  <SMILES>  (1) 
[Cl-].[Cl-].[Zn++]

>  <INCHI_IDENTIFIER>  (1) 
InChI=1S/2ClH.Zn/h2*1H;/q;;+2/p-2

>  <INCHI_KEY>  (1) 
JIAARYAFYJHUJI-UHFFFAOYSA-L

>  <FORMULA>  (1) 
Cl2Zn

>  <MOLECULAR_WEIGHT>  (1) 
136.315

>  <EXACT_MASS>  (1) 
133.866851992

>  <JCHEM_ACCEPTOR_COUNT>  (1) 
0

>  <JCHEM_ATOM_COUNT>  (1) 
3

>  <JCHEM_AVERAGE_POLARIZABILITY>  (1) 
2.3881688999999993

>  <JCHEM_BIOAVAILABILITY>  (1) 
1

>  <JCHEM_DONOR_COUNT>  (1) 
0

>  <JCHEM_FORMAL_CHARGE>  (1) 
0

>  <JCHEM_GHOSE_FILTER>  (1) 
0

>  <JCHEM_IUPAC>  (1) 
zinc(2+) dichloride

>  <ALOGPS_LOGP>  (1) 
0.91

>  <JCHEM_LOGP>  (1) 
0.6123387216666667

>  <ALOGPS_LOGS>  (1) 
-0.47

>  <JCHEM_MDDR_LIKE_RULE>  (1) 
0

>  <JCHEM_NUMBER_OF_RINGS>  (1) 
0

>  <JCHEM_PHYSIOLOGICAL_CHARGE>  (1) 
-1

>  <JCHEM_PKA_STRONGEST_ACIDIC>  (1) 
-7.000000000000001

>  <JCHEM_POLAR_SURFACE_AREA>  (1) 
0.0

>  <JCHEM_REFRACTIVITY>  (1) 
5.6156

>  <JCHEM_ROTATABLE_BOND_COUNT>  (1) 
0

>  <JCHEM_RULE_OF_FIVE>  (1) 
1

>  <ALOGPS_SOLUBILITY>  (1) 
4.61e+01 g/l

>  <JCHEM_TRADITIONAL_IUPAC>  (1) 
zinc chloride

>  <JCHEM_VEBER_RULE>  (1) 
1

>  <DRUGBANK_ID>  (1) 
DB14533

>  <SECONDARY_ACCESSION_NUMBERS>  (1) 
DBSALT001307

>  <DRUG_GROUPS>  (1) 
approved

>  <GENERIC_NAME>  (1) 
Zinc chloride

>  <SYNONYMS>  (1) 
Zinc chloride

>  <PRODUCTS>  (1) 
3X Medicated Mouth Sore Gel; 3X Medicated Toothache and Gum Gel; 3x Medicated Mouth Sore Gel; 3x Medicated Toothache and Gum Gel; 4X Medicated Severe Toothache and Gum Cream; 4X Medicated Severe Toothache and Gum Gel; 4X Medicated Toothache and Gum Gel; 4x Medicated Gum Cream; 4x Medicated Severe Toothache and Gum Gel; 4x Medicated Toothache and Gum Cream; 4x Medicated Toothache and Gum Gel; Addamel N; Addnutriv; Avapta; Benzocaine, Menthol, Zinc Chloride; CVS Pharmacy Mouth Sore; CVS Pharmacy Mouth Sore Gel; CVS Severe Toothache and Gum Relief Triple Medicated; DG 3x Medicated Toothache adn Gum Gel; DG 4x Medicated Tooth and Gum Cream; Dermagran II Moisturiz.spray-liq Top 1mg/ml; Dermagran II Moisturizing Spray 1mg/ml; Dermagran II Moisturizing Spray-1mg/ml; Dermagran Moisturizing Spray; Freezone Liq; G-bucal-C; Giltuss Bucalsep; Gumsol; HEB Mouth Sore Relief; KANKA SoftBrush; KDS Lab Liquid Styptic; Meijer Severe Toothache and Gum Relief Triple Medicated; Orajel 3X Medicated For All Mouth Sores; Orajel 3X Medicated For Toothache and Gum; Orajel 3X Medicated for Denture Pain; Orajel 4X Medicated For Toothache and Gum; Orajel 4X Medicated PM For Toothache and Gum; Orajel Denture Pain Relief; Orajel Gum Pain 3X Medicated; Orajel Instant Pain Relief Maximum Strength; Orajel Mouth-aid; Orajel Toothache Rinse; PM Toothache Relief; Peditrace; Perioselect Zinc Chloride Solution 1%; Prosol Astringent Irrigating Medicament Liq; Rite Aid Maximum Strength; Rite Aid Severe Toothache and Gum Relief Triple Medicated; Severe Triple Medicated Gel; Topco 4x Medicated Toothache and Gum Gel; Trace Elements Injection USP; Trace Elements Solution Inj; Trace Elements for Injection - Liq IV; Walgreens Instant Toothache and Gum Relief Triple Medicated; Zinc; Zinc Chloride

$$$$
