
     RDKit          2D

  6  5  0  0  0  0  0  0  0  0999 V2000
    0.8250   -0.8250    0.0000 C   0  0  0  0  0  0  0  0  0  0  0  0
    0.8250    0.0000    0.0000 C   0  0  0  0  0  0  0  0  0  0  0  0
    0.1105   -1.2375    0.0000 F   0  0  0  0  0  0  0  0  0  0  0  0
    0.8250    0.8250    0.0000 F   0  0  0  0  0  0  0  0  0  0  0  0
    1.6500   -0.0000    0.0000 F   0  0  0  0  0  0  0  0  0  0  0  0
    0.0000    0.0000    0.0000 F   0  0  0  0  0  0  0  0  0  0  0  0
  2  1  1  0
  3  1  1  0
  4  2  1  0
  5  2  1  0
  6  2  1  0
M  END
>  <DATABASE_ID>  (1) 
DB13116

>  <DATABASE_NAME>  (1) 
drugbank

>  <SMILES>  (1) 
FCC(F)(F)F

>  <INCHI_IDENTIFIER>  (1) 
InChI=1S/C2H2F4/c3-1-2(4,5)6/h1H2

>  <INCHI_KEY>  (1) 
LVGUZGTVOIAKKC-UHFFFAOYSA-N

>  <FORMULA>  (1) 
C2H2F4

>  <MOLECULAR_WEIGHT>  (1) 
102.032

>  <EXACT_MASS>  (1) 
102.009262716

>  <JCHEM_ACCEPTOR_COUNT>  (1) 
0

>  <JCHEM_ATOM_COUNT>  (1) 
8

>  <JCHEM_AVERAGE_POLARIZABILITY>  (1) 
4.841874918759373

>  <JCHEM_BIOAVAILABILITY>  (1) 
1

>  <JCHEM_DONOR_COUNT>  (1) 
0

>  <JCHEM_FORMAL_CHARGE>  (1) 
0

>  <JCHEM_GHOSE_FILTER>  (1) 
0

>  <JCHEM_IUPAC>  (1) 
1,1,1,2-tetrafluoroethane

>  <ALOGPS_LOGP>  (1) 
1.39

>  <JCHEM_LOGP>  (1) 
1.3276109423333333

>  <ALOGPS_LOGS>  (1) 
-0.74

>  <JCHEM_MDDR_LIKE_RULE>  (1) 
0

>  <JCHEM_NUMBER_OF_RINGS>  (1) 
0

>  <JCHEM_PHYSIOLOGICAL_CHARGE>  (1) 
0

>  <JCHEM_POLAR_SURFACE_AREA>  (1) 
0.0

>  <JCHEM_REFRACTIVITY>  (1) 
12.019299999999998

>  <JCHEM_ROTATABLE_BOND_COUNT>  (1) 
1

>  <JCHEM_RULE_OF_FIVE>  (1) 
1

>  <ALOGPS_SOLUBILITY>  (1) 
1.86e+01 g/l

>  <JCHEM_TRADITIONAL_IUPAC>  (1) 
refrigerant R134a

>  <JCHEM_VEBER_RULE>  (1) 
1

>  <DRUGBANK_ID>  (1) 
DB13116

>  <DRUG_GROUPS>  (1) 
approved; investigational; withdrawn

>  <GENERIC_NAME>  (1) 
Norflurane

>  <SYNONYMS>  (1) 
1,1,1,2 Tetrafluoroethane; Norflurane; Tetrafluoroethane

$$$$
