
     RDKit          2D

 34 37  0  0  0  0  0  0  0  0999 V2000
    0.6947   -0.1982    0.0000 C   0  0  0  0  0  0  0  0  0  0  0  0
    0.7047    0.6037    0.0000 C   0  0  0  0  0  0  0  0  0  0  0  0
   -0.0398   -0.6034    0.0000 C   0  0  0  0  0  0  0  0  0  0  0  0
    1.4167   -0.6403    0.0000 C   0  0  0  0  0  0  0  0  0  0  0  0
   -0.0006    1.0215    0.0000 C   0  0  0  0  0  0  0  0  0  0  0  0
    1.4546    1.0457    0.0000 C   0  0  0  0  0  0  0  0  0  0  0  0
    0.7047    1.4287    0.0000 O   0  0  0  0  0  0  0  0  0  0  0  0
   -0.7495   -0.1972    0.0000 C   0  0  0  0  0  0  0  0  0  0  0  0
   -0.0398   -1.4282    0.0000 O   0  0  0  0  0  0  0  0  0  0  0  0
    2.1630   -0.2199    0.0000 C   0  0  0  0  0  0  0  0  0  0  0  0
    1.4167   -1.4651    0.0000 N   0  0  0  0  0  0  0  0  0  0  0  0
   -0.7424    0.6278    0.0000 C   0  0  0  0  0  0  0  0  0  0  0  0
   -0.0006    1.8463    0.0000 O   0  0  0  0  0  0  0  0  0  0  0  0
    2.1694    0.5922    0.0000 C   0  0  0  0  0  0  0  0  0  0  0  0
    1.4546    1.8707    0.0000 O   0  0  0  0  0  0  0  0  0  0  0  0
   -1.4707   -0.6023    0.0000 C   0  0  0  0  0  0  0  0  0  0  0  0
    2.8788   -0.6323    0.0000 O   0  0  0  0  0  0  0  0  0  0  0  0
    2.1243   -1.8727    0.0000 C   0  0  0  0  0  0  0  0  0  0  0  0
    0.6966   -1.8782    0.0000 C   0  0  0  0  0  0  0  0  0  0  0  0
   -1.4412    1.0532    0.0000 C   0  0  0  0  0  0  0  0  0  0  0  0
    2.8854    1.0047    0.0000 C   0  0  0  0  0  0  0  0  0  0  0  0
   -2.1744   -0.1843    0.0000 C   0  0  0  0  0  0  0  0  0  0  0  0
   -2.1744    0.6406    0.0000 C   0  0  0  0  0  0  0  0  0  0  0  0
   -1.4412    1.8782    0.0000 O   0  0  0  0  0  0  0  0  0  0  0  0
    3.6051    0.5877    0.0000 N   0  0  0  0  0  0  0  0  0  0  0  0
    2.8854    1.8248    0.0000 O   0  0  0  0  0  0  0  0  0  0  0  0
   -2.8908   -0.5853    0.0000 C   0  0  0  0  0  0  0  0  0  0  0  0
   -2.8592    1.0532    0.0000 C   0  0  0  0  0  0  0  0  0  0  0  0
   -3.6051   -0.1740    0.0000 C   0  0  0  0  0  0  0  0  0  0  0  0
   -3.6051    0.6522    0.0000 C   0  0  0  0  0  0  0  0  0  0  0  0
   -2.8592    1.8780    0.0000 O   0  0  0  0  0  0  0  0  0  0  0  0
    0.6947   -1.0228    0.0000 H   0  0  0  0  0  0  0  0  0  0  0  0
   -0.7495   -1.0221    0.0000 H   0  0  0  0  0  0  0  0  0  0  0  0
   -1.4806   -1.4271    0.0000 C   0  0  0  0  0  0  0  0  0  0  0  0
  1  2  1  0
  1  3  1  0
  1  4  1  0
  2  5  1  0
  2  6  1  0
  2  7  1  1
  3  8  1  0
  3  9  1  1
  4 10  1  0
  4 11  1  1
  5 12  2  0
  5 13  1  0
  6 14  1  0
  6 15  2  0
  8 16  1  0
 10 17  1  0
 11 18  1  0
 11 19  1  0
 12 20  1  0
 14 21  1  0
 16 22  1  0
 20 23  1  0
 20 24  2  0
 21 25  1  0
 21 26  2  0
 22 27  2  0
 23 28  2  0
 27 29  1  0
 28 30  1  0
 28 31  1  0
  8 12  1  0
 10 14  2  0
 22 23  1  0
 29 30  2  0
  1 32  1  1
  8 33  1  1
 16 34  2  0
M  END
>  <DATABASE_ID>  (1) 
DB00931

>  <DATABASE_NAME>  (1) 
drugbank

>  <SMILES>  (1) 
[H][C@@]12[C@@H](O)[C@]3([H])C(=C)C4=C(C(O)=CC=C4)C(=O)C3=C(O)[C@]1(O)C(=O)C(C(N)=O)=C(O)[C@H]2N(C)C

>  <INCHI_IDENTIFIER>  (1) 
InChI=1S/C22H22N2O8/c1-7-8-5-4-6-9(25)11(8)16(26)12-10(7)17(27)14-15(24(2)3)18(28)13(21(23)31)20(30)22(14,32)19(12)29/h4-6,10,14-15,17,25,27-29,32H,1H2,2-3H3,(H2,23,31)/t10-,14-,15+,17+,22+/m1/s1

>  <INCHI_KEY>  (1) 
MHIGBKBJSQVXNH-IWVLMIASSA-N

>  <FORMULA>  (1) 
C22H22N2O8

>  <MOLECULAR_WEIGHT>  (1) 
442.424

>  <EXACT_MASS>  (1) 
442.137615676

>  <JCHEM_ACCEPTOR_COUNT>  (1) 
9

>  <JCHEM_ATOM_COUNT>  (1) 
54

>  <JCHEM_AVERAGE_POLARIZABILITY>  (1) 
41.95263210043263

>  <JCHEM_BIOAVAILABILITY>  (1) 
1

>  <JCHEM_DONOR_COUNT>  (1) 
6

>  <JCHEM_FORMAL_CHARGE>  (1) 
0

>  <JCHEM_GHOSE_FILTER>  (1) 
0

>  <JCHEM_IUPAC>  (1) 
(4S,4aR,5S,5aR,12aS)-4-(dimethylamino)-3,5,10,12,12a-pentahydroxy-6-methylidene-1,11-dioxo-1,4,4a,5,5a,6,11,12a-octahydrotetracene-2-carboxamide

>  <ALOGPS_LOGP>  (1) 
-0.46

>  <JCHEM_LOGP>  (1) 
-3.50773220089989

>  <ALOGPS_LOGS>  (1) 
-2.59

>  <JCHEM_MDDR_LIKE_RULE>  (1) 
0

>  <JCHEM_NUMBER_OF_RINGS>  (1) 
4

>  <JCHEM_PHYSIOLOGICAL_CHARGE>  (1) 
0

>  <JCHEM_PKA>  (1) 
7.990364362567775

>  <JCHEM_PKA_STRONGEST_ACIDIC>  (1) 
2.8770159010201826

>  <JCHEM_PKA_STRONGEST_BASIC>  (1) 
7.439599869050888

>  <JCHEM_POLAR_SURFACE_AREA>  (1) 
181.62

>  <JCHEM_REFRACTIVITY>  (1) 
113.66939999999995

>  <JCHEM_ROTATABLE_BOND_COUNT>  (1) 
2

>  <JCHEM_RULE_OF_FIVE>  (1) 
0

>  <ALOGPS_SOLUBILITY>  (1) 
1.14e+00 g/l

>  <JCHEM_TRADITIONAL_IUPAC>  (1) 
methacycline

>  <JCHEM_VEBER_RULE>  (1) 
0

>  <DRUGBANK_ID>  (1) 
DB00931

>  <SECONDARY_ACCESSION_NUMBERS>  (1) 
APRD00137

>  <DRUG_GROUPS>  (1) 
approved

>  <GENERIC_NAME>  (1) 
Metacycline

>  <SYNONYMS>  (1) 
6-Demethyl-6-deoxy-5-hydroxy-6-methylenetetracycline; 6-Deoxy-6-demethyl-6-methylene-5-oxytetracycline; 6-Methylene-5-hydroxytetracycline; 6-Methylene-5-oxytetracycline; 6-Methyleneoxytetracycline; Metaciclina; Metacycline; Methacycline; Methacyclinum; Methylenecycline; Tri-methacycline

>  <SALTS>  (1) 
Metacycline hydrochloride

$$$$
