
     RDKit          2D

 44 51  0  0  1  0  0  0  0  0999 V2000
   -9.0577    7.4053    0.0000 C   0  0  0  0  0  0  0  0  0  0  0  0
   -9.2545    6.6041    0.0000 C   0  0  0  0  0  0  0  0  0  0  0  0
   -8.4358    6.5020    0.0000 C   0  0  0  0  0  0  0  0  0  0  0  0
  -10.0273    6.8929    0.0000 C   0  0  0  0  0  0  0  0  0  0  0  0
  -10.5407    6.2471    0.0000 C   0  0  0  0  0  0  0  0  0  0  0  0
  -10.0852    5.5593    0.0000 C   0  0  0  0  0  0  0  0  0  0  0  0
   -9.2618    5.6098    0.0000 N   0  0  0  0  0  0  0  0  0  0  0  0
   -8.8063    4.9220    0.0000 C   0  0  0  0  0  0  0  0  0  0  0  0
   -7.9858    5.0082    0.0000 N   0  0  0  0  0  0  0  0  0  0  0  0
   -7.5009    4.3408    0.0000 C   0  0  0  0  0  0  0  0  0  0  0  0
   -7.8364    3.5871    0.0000 C   0  0  0  0  0  0  0  0  0  0  0  0
   -8.6569    3.5008    0.0000 C   0  0  0  0  0  0  0  0  0  0  0  0
   -9.1418    4.1683    0.0000 C   0  0  0  0  0  0  0  0  0  0  0  0
   -8.9528    3.3023    0.0000 C   0  0  0  0  0  0  0  0  0  0  0  0
   -8.1884    2.9920    0.0000 O   0  0  0  0  0  0  0  0  0  0  0  0
   -9.6407    2.8468    0.0000 N   0  0  0  0  0  0  0  0  0  0  0  0
  -10.2864    3.3602    0.0000 S   0  0  0  0  0  0  0  0  0  0  0  0
  -10.2191    2.5380    0.0000 O   0  0  0  0  0  0  0  0  0  0  0  0
  -10.8401    2.7486    0.0000 O   0  0  0  0  0  0  0  0  0  0  0  0
  -11.1891    3.3441    0.0000 C   0  0  0  0  0  0  0  0  0  0  0  0
  -11.5571    2.6057    0.0000 C   0  0  0  0  0  0  0  0  0  0  0  0
  -12.3805    2.5552    0.0000 C   0  0  0  0  0  0  0  0  0  0  0  0
  -12.8360    3.2430    0.0000 C   0  0  0  0  0  0  0  0  0  0  0  0
  -12.4680    3.9814    0.0000 C   0  0  0  0  0  0  0  0  0  0  0  0
  -12.9235    4.6693    0.0000 N   0  0  0  0  0  0  0  0  0  0  0  0
  -12.5556    5.4077    0.0000 C   0  0  0  0  0  0  0  0  0  0  0  0
  -11.7321    5.4582    0.0000 C   0  0  0  0  0  0  0  0  0  0  0  0
  -11.3642    6.1966    0.0000 C   0  0  0  0  0  0  0  0  0  0  0  0
  -11.6446    4.0320    0.0000 N   0  0  0  0  0  0  0  0  0  0  0  0
   -6.6804    4.4270    0.0000 N   0  0  0  0  0  0  0  0  0  0  0  0
   -6.2679    5.1415    0.0000 C   0  0  0  0  0  0  0  0  0  0  0  0
   -5.4609    4.9699    0.0000 C   0  0  0  0  0  0  0  0  0  0  0  0
   -5.3747    4.1495    0.0000 C   0  0  0  0  0  0  0  0  0  0  0  0
   -4.6602    3.7370    0.0000 O   0  0  0  0  0  0  0  0  0  0  0  0
   -4.6602    2.9120    0.0000 C   0  0  0  0  0  0  0  0  0  0  0  0
   -3.9458    2.4995    0.0000 C   0  0  0  0  0  0  0  0  0  0  0  0
   -3.9458    1.6745    0.0000 C   0  0  0  0  0  0  0  0  0  0  0  0
   -3.5333    0.9600    0.0000 C   0  0  0  0  0  0  0  0  0  0  0  0
   -2.7083    0.9600    0.0000 C   0  0  0  0  0  0  0  0  0  0  0  0
   -3.1208    0.2455    0.0000 C   0  0  0  0  0  0  0  0  0  0  0  0
   -4.3583    0.9600    0.0000 C   0  0  0  0  0  0  0  0  0  0  0  0
   -4.7708    0.2455    0.0000 C   0  0  0  0  0  0  0  0  0  0  0  0
   -5.1833    0.9600    0.0000 C   0  0  0  0  0  0  0  0  0  0  0  0
   -6.1284    3.8139    0.0000 N   0  0  0  0  0  0  0  0  0  0  0  0
  1  2  1  0
  2  3  1  0
  2  4  1  0
  5  4  1  1
  5  6  1  0
  6  7  1  0
  2  7  1  0
  7  8  1  0
  8  9  2  0
  9 10  1  0
 10 11  2  0
 11 12  1  0
 12 13  2  0
  8 13  1  0
 13 14  1  0
 14 15  2  0
 14 16  1  0
 16 17  1  0
 17 18  2  0
 17 19  2  0
 17 20  1  0
 20 21  1  0
 21 22  2  0
 22 23  1  0
 23 24  2  0
 24 25  1  0
 25 26  1  0
 26 27  1  0
 27 28  1  0
  5 28  1  0
 24 29  1  0
 20 29  2  0
 10 30  1  0
 30 31  1  0
 31 32  2  0
 32 33  1  0
 33 34  1  0
 34 35  1  0
 35 36  1  0
 36 37  1  0
 37 38  1  0
 38 39  1  0
 39 40  1  0
 38 40  1  0
 38 41  1  0
 37 41  1  0
 41 42  1  0
 42 43  1  0
 41 43  1  0
 33 44  2  0
 30 44  1  0
M  END
>  <DATABASE_ID>  (1) 
DB18373

>  <DATABASE_NAME>  (1) 
drugbank

>  <SMILES>  (1) 
CC1(C)C[C@H]2CN1C1=NC(=CC=C1C(=O)NS(=O)(=O)C1=CC=CC(NCCC2)=N1)N1C=CC(OCCC2C3(CC3)C22CC2)=N1

>  <INCHI_IDENTIFIER>  (1) 
InChI=1S/C32H39N7O4S/c1-30(2)19-21-5-4-16-33-24-6-3-7-27(34-24)44(41,42)37-29(40)22-8-9-25(35-28(22)38(30)20-21)39-17-10-26(36-39)43-18-11-23-31(12-13-31)32(23)14-15-32/h3,6-10,17,21,23H,4-5,11-16,18-20H2,1-2H3,(H,33,34)(H,37,40)/t21-/m0/s1

>  <INCHI_KEY>  (1) 
VCSUIBJKYCVWNF-NRFANRHFSA-N

>  <FORMULA>  (1) 
C32H39N7O4S

>  <MOLECULAR_WEIGHT>  (1) 
617.77

>  <EXACT_MASS>  (1) 
617.278423938

>  <JCHEM_ACCEPTOR_COUNT>  (1) 
9

>  <JCHEM_ATOM_COUNT>  (1) 
83

>  <JCHEM_AVERAGE_NEUTRAL_MICROSPECIES_CHARGE>  (1) 
1.2356220793552604

>  <JCHEM_AVERAGE_POLARIZABILITY>  (1) 
68.47902691425392

>  <JCHEM_BIOAVAILABILITY>  (1) 
1

>  <JCHEM_DONOR_COUNT>  (1) 
2

>  <JCHEM_FORMAL_CHARGE>  (1) 
0

>  <JCHEM_GHOSE_FILTER>  (1) 
0

>  <JCHEM_IUPAC>  (1) 
(14S)-8-[3-(2-{dispiro[2.0.2^{4}.1^{3}]heptan-7-yl}ethoxy)-1H-pyrazol-1-yl]-12,12-dimethyl-2lambda6-thia-3,9,11,18,23-pentaazatetracyclo[17.3.1.1^{11,14}.0^{5,10}]tetracosa-1(22),5,7,9,19(23),20-hexaene-2,2,4-trione

>  <JCHEM_LOGP>  (1) 
4.680296239006064

>  <JCHEM_MDDR_LIKE_RULE>  (1) 
0

>  <JCHEM_NEUTRAL_CHARGE>  (1) 
-1

>  <JCHEM_NUMBER_OF_RINGS>  (1) 
8

>  <JCHEM_PHYSIOLOGICAL_CHARGE>  (1) 
-1

>  <JCHEM_PKA_STRONGEST_ACIDIC>  (1) 
3.566921716406769

>  <JCHEM_PKA_STRONGEST_BASIC>  (1) 
4.315485608692051

>  <JCHEM_POLAR_SURFACE_AREA>  (1) 
131.34

>  <JCHEM_REFRACTIVITY>  (1) 
170.15529999999998

>  <JCHEM_ROTATABLE_BOND_COUNT>  (1) 
5

>  <JCHEM_RULE_OF_FIVE>  (1) 
0

>  <JCHEM_TRADITIONAL_IUPAC>  (1) 
(14S)-8-[3-(2-{dispiro[2.0.2^{4}.1^{3}]heptan-7-yl}ethoxy)pyrazol-1-yl]-12,12-dimethyl-2lambda6-thia-3,9,11,18,23-pentaazatetracyclo[17.3.1.1^{11,14}.0^{5,10}]tetracosa-1(22),5,7,9,19(23),20-hexaene-2,2,4-trione

>  <JCHEM_VEBER_RULE>  (1) 
0

>  <DRUGBANK_ID>  (1) 
DB18373

>  <DRUG_GROUPS>  (1) 
approved; investigational

>  <GENERIC_NAME>  (1) 
Vanzacaftor

>  <SYNONYMS>  (1) 
Vanzacaftor; VX-121

>  <PRODUCTS>  (1) 
Alyftrek

>  <SALTS>  (1) 
Vanzacaftor calcium

$$$$
