
     RDKit          2D

 13 13  0  0  0  0  0  0  0  0999 V2000
   -1.4289    0.0000    0.0000 C   0  0  0  0  0  0  0  0  0  0  0  0
   -2.8579    0.8250    0.0000 C   0  0  0  0  0  0  0  0  0  0  0  0
    0.0000    2.4750    0.0000 C   0  0  0  0  0  0  0  0  0  0  0  0
    0.7145   -0.4125    0.0000 C   0  0  0  0  0  0  0  0  0  0  0  0
    1.4289    0.0000    0.0000 C   0  0  0  0  0  0  0  0  0  0  0  0
    0.0000    0.0000    0.0000 C   0  0  0  0  0  0  0  0  0  0  0  0
    1.4289    0.8250    0.0000 C   0  0  0  0  0  0  0  0  0  0  0  0
   -0.7145    1.2375    0.0000 C   0  0  0  0  0  0  0  0  0  0  0  0
   -1.4289    0.8250    0.0000 C   0  0  0  0  0  0  0  0  0  0  0  0
    0.0000    0.8250    0.0000 C   0  0  0  0  0  0  0  0  0  0  0  0
    0.7145    1.2375    0.0000 C   0  0  0  0  0  0  0  0  0  0  0  0
   -2.1434    1.2375    0.0000 N   0  0  0  0  0  0  0  0  0  0  0  0
    0.7145    2.0625    0.0000 O   0  0  0  0  0  0  0  0  0  0  0  0
  5  4  2  0
  6  4  1  0
  7  5  1  0
  9  1  1  0
  9  8  1  0
 10  6  2  0
 10  8  1  0
 11  7  2  0
 11 10  1  0
 12  2  1  0
 12  9  1  0
 13  3  1  0
 13 11  1  0
M  END
>  <DATABASE_ID>  (1) 
DB13624

>  <DATABASE_NAME>  (1) 
drugbank

>  <SMILES>  (1) 
CNC(C)CC1=CC=CC=C1OC

>  <INCHI_IDENTIFIER>  (1) 
InChI=1S/C11H17NO/c1-9(12-2)8-10-6-4-5-7-11(10)13-3/h4-7,9,12H,8H2,1-3H3

>  <INCHI_KEY>  (1) 
OEHAYUOVELTAPG-UHFFFAOYSA-N

>  <FORMULA>  (1) 
C11H17NO

>  <MOLECULAR_WEIGHT>  (1) 
179.2588

>  <EXACT_MASS>  (1) 
179.131014171

>  <JCHEM_ACCEPTOR_COUNT>  (1) 
2

>  <JCHEM_ATOM_COUNT>  (1) 
30

>  <JCHEM_AVERAGE_NEUTRAL_MICROSPECIES_CHARGE>  (1) 
0.9990990215295471

>  <JCHEM_AVERAGE_POLARIZABILITY>  (1) 
20.788411474483183

>  <JCHEM_BIOAVAILABILITY>  (1) 
1

>  <JCHEM_DONOR_COUNT>  (1) 
1

>  <JCHEM_FORMAL_CHARGE>  (1) 
0

>  <JCHEM_GHOSE_FILTER>  (1) 
1

>  <JCHEM_IUPAC>  (1) 
[1-(2-methoxyphenyl)propan-2-yl](methyl)amine

>  <ALOGPS_LOGP>  (1) 
2.13

>  <JCHEM_LOGP>  (1) 
2.0791596096666662

>  <ALOGPS_LOGS>  (1) 
-2.36

>  <JCHEM_MDDR_LIKE_RULE>  (1) 
0

>  <JCHEM_NEUTRAL_CHARGE>  (1) 
1

>  <JCHEM_NUMBER_OF_RINGS>  (1) 
1

>  <JCHEM_PHYSIOLOGICAL_CHARGE>  (1) 
1

>  <JCHEM_PKA_STRONGEST_BASIC>  (1) 
10.044894119895341

>  <JCHEM_POLAR_SURFACE_AREA>  (1) 
21.259999999999998

>  <JCHEM_REFRACTIVITY>  (1) 
54.943000000000005

>  <JCHEM_ROTATABLE_BOND_COUNT>  (1) 
4

>  <JCHEM_RULE_OF_FIVE>  (1) 
1

>  <ALOGPS_SOLUBILITY>  (1) 
7.83e-01 g/l

>  <JCHEM_TRADITIONAL_IUPAC>  (1) 
tetrahydrofolic acid

>  <JCHEM_VEBER_RULE>  (1) 
1

>  <DRUGBANK_ID>  (1) 
DB13624

>  <DRUG_GROUPS>  (1) 
approved

>  <GENERIC_NAME>  (1) 
Methoxyphenamine

>  <SYNONYMS>  (1) 
2-Methoxymethamphetamine; Méthoxyphénamine; Methoxyphenamine; Methoxyphenaminum; Metoxifenamina

>  <SALTS>  (1) 
Methoxyphenamine hydrochloride

$$$$
