992
     RDKit          2D

 10  9  0  0  0  0  0  0  0  0999 V2000
    6.3793   -0.2063    0.0000 O   0  0  0  0  0  0  0  0  0  0  0  0
    3.5217   -1.0312    0.0000 O   0  0  0  0  0  0  0  0  0  0  0  0
    5.6650    1.0312    0.0000 O   0  0  0  0  0  0  0  0  0  0  0  0
    2.0928   -0.2063    0.0000 N   0  0  0  0  0  0  0  0  0  0  0  0
    4.2361    0.2063    0.0000 C   0  0  0  0  0  0  0  0  0  0  0  0
    4.9504   -0.2063    0.0000 C   0  0  0  0  0  0  0  0  0  0  0  0
    3.5217   -0.2063    0.0000 C   0  0  0  0  0  0  0  0  0  0  0  0
    2.8072    0.2063    0.0000 C   0  0  0  0  0  0  0  0  0  0  0  0
    5.6650    0.2063    0.0000 C   0  0  0  0  0  0  0  0  0  0  0  0
    7.0938    0.2063    0.0000 C   0  0  0  0  0  0  0  0  0  0  0  0
  1  9  1  0
  1 10  1  0
  2  7  2  0
  3  9  2  0
  4  8  1  0
  5  6  1  0
  5  7  1  0
  6  9  1  0
  7  8  1  0
M  END
>  <DATABASE_ID>  (1) 
DB00992

>  <DATABASE_NAME>  (1) 
drugbank

>  <SMILES>  (1) 
COC(=O)CCC(=O)CN

>  <INCHI_IDENTIFIER>  (1) 
InChI=1S/C6H11NO3/c1-10-6(9)3-2-5(8)4-7/h2-4,7H2,1H3

>  <INCHI_KEY>  (1) 
YUUAYBAIHCDHHD-UHFFFAOYSA-N

>  <FORMULA>  (1) 
C6H11NO3

>  <MOLECULAR_WEIGHT>  (1) 
145.1564

>  <EXACT_MASS>  (1) 
145.073893223

>  <JCHEM_ACCEPTOR_COUNT>  (1) 
3

>  <JCHEM_ATOM_COUNT>  (1) 
21

>  <JCHEM_AVERAGE_NEUTRAL_MICROSPECIES_CHARGE>  (1) 
0.8722124963864074

>  <JCHEM_AVERAGE_POLARIZABILITY>  (1) 
14.546989368709983

>  <JCHEM_BIOAVAILABILITY>  (1) 
1

>  <JCHEM_DONOR_COUNT>  (1) 
1

>  <JCHEM_FORMAL_CHARGE>  (1) 
0

>  <JCHEM_GHOSE_FILTER>  (1) 
0

>  <JCHEM_IUPAC>  (1) 
methyl 5-amino-4-oxopentanoate

>  <ALOGPS_LOGP>  (1) 
-1.30

>  <JCHEM_LOGP>  (1) 
-0.8470932313333333

>  <ALOGPS_LOGS>  (1) 
0.18

>  <JCHEM_MDDR_LIKE_RULE>  (1) 
0

>  <JCHEM_NEUTRAL_CHARGE>  (1) 
1

>  <JCHEM_NUMBER_OF_RINGS>  (1) 
0

>  <JCHEM_PHYSIOLOGICAL_CHARGE>  (1) 
1

>  <JCHEM_PKA_STRONGEST_ACIDIC>  (1) 
17.15916702473912

>  <JCHEM_PKA_STRONGEST_BASIC>  (1) 
7.834133918335162

>  <JCHEM_POLAR_SURFACE_AREA>  (1) 
69.39

>  <JCHEM_REFRACTIVITY>  (1) 
35.216899999999995

>  <JCHEM_ROTATABLE_BOND_COUNT>  (1) 
5

>  <JCHEM_RULE_OF_FIVE>  (1) 
1

>  <ALOGPS_SOLUBILITY>  (1) 
2.20e+02 g/l

>  <JCHEM_TRADITIONAL_IUPAC>  (1) 
tetrahydrofolic acid

>  <JCHEM_VEBER_RULE>  (1) 
0

>  <DRUGBANK_ID>  (1) 
DB00992

>  <SECONDARY_ACCESSION_NUMBERS>  (1) 
APRD01105

>  <DRUG_GROUPS>  (1) 
approved; investigational

>  <GENERIC_NAME>  (1) 
Methyl aminolevulinate

>  <SYNONYMS>  (1) 
5-aminolevulinic acid methyl ester; Aminolevulinato de metilo; Aminolevulinic acid methyl ester; methyl 5-aminolevulinate; Methyl aminolevulinate; Methyl delta-aminolevulinate; methyl δ-aminolevulinate

>  <PRODUCTS>  (1) 
KRX Aesthetics PD-13 Therapy; Metvix; Metvixia

>  <SALTS>  (1) 
Methyl aminolevulinate hydrochloride

$$$$
