1056
     RDKit          2D

 14 14  0  0  1  0  0  0  0  0999 V2000
    4.5080    0.1568    0.0000 O   0  0  0  0  0  0  0  0  0  0  0  0
    3.0791    0.1568    0.0000 N   0  0  0  0  0  0  0  0  0  0  0  0
    4.5080    1.8068    0.0000 N   0  0  0  0  0  0  0  0  0  0  0  0
    3.0791   -0.6683    0.0000 C   0  0  0  0  0  0  0  0  0  0  0  0
    3.7935   -1.0808    0.0000 C   0  0  0  0  0  0  0  0  0  0  0  0
    2.3645   -1.0808    0.0000 C   0  0  0  0  0  0  0  0  0  0  0  0
    3.7935    1.3943    0.0000 C   0  0  0  0  0  0  0  0  0  0  0  0
    3.7935    0.5693    0.0000 C   0  0  0  0  0  0  0  0  0  0  0  0
    3.7935   -1.9058    0.0000 C   0  0  0  0  0  0  0  0  0  0  0  0
    2.3645   -1.9058    0.0000 C   0  0  0  0  0  0  0  0  0  0  0  0
    4.5080   -0.6683    0.0000 C   0  0  0  0  0  0  0  0  0  0  0  0
    1.6500   -0.6683    0.0000 C   0  0  0  0  0  0  0  0  0  0  0  0
    3.0791   -2.3183    0.0000 C   0  0  0  0  0  0  0  0  0  0  0  0
    3.0791    1.8068    0.0000 C   0  0  0  0  0  0  0  0  0  0  0  0
  1  8  2  0
  2  4  1  0
  2  8  1  0
  3  7  1  0
  4  5  2  0
  4  6  1  0
  5  9  1  0
  5 11  1  0
  6 10  2  0
  6 12  1  0
  7  8  1  0
  7 14  1  0
  9 13  2  0
 10 13  1  0
M  END
>  <DATABASE_ID>  (1) 
DB01056

>  <DATABASE_NAME>  (1) 
drugbank

>  <SMILES>  (1) 
CC(N)C(=O)NC1=C(C)C=CC=C1C

>  <INCHI_IDENTIFIER>  (1) 
InChI=1S/C11H16N2O/c1-7-5-4-6-8(2)10(7)13-11(14)9(3)12/h4-6,9H,12H2,1-3H3,(H,13,14)

>  <INCHI_KEY>  (1) 
BUJAGSGYPOAWEI-UHFFFAOYSA-N

>  <FORMULA>  (1) 
C11H16N2O

>  <MOLECULAR_WEIGHT>  (1) 
192.2575

>  <EXACT_MASS>  (1) 
192.126263144

>  <JCHEM_ACCEPTOR_COUNT>  (1) 
2

>  <JCHEM_ATOM_COUNT>  (1) 
30

>  <JCHEM_AVERAGE_NEUTRAL_MICROSPECIES_CHARGE>  (1) 
0.9440798685707408

>  <JCHEM_AVERAGE_POLARIZABILITY>  (1) 
21.594435979157716

>  <JCHEM_BIOAVAILABILITY>  (1) 
1

>  <JCHEM_DONOR_COUNT>  (1) 
2

>  <JCHEM_FORMAL_CHARGE>  (1) 
0

>  <JCHEM_GHOSE_FILTER>  (1) 
1

>  <JCHEM_IUPAC>  (1) 
2-amino-N-(2,6-dimethylphenyl)propanamide

>  <ALOGPS_LOGP>  (1) 
0.55

>  <JCHEM_LOGP>  (1) 
1.882433361666667

>  <ALOGPS_LOGS>  (1) 
-2.08

>  <JCHEM_MDDR_LIKE_RULE>  (1) 
0

>  <JCHEM_NEUTRAL_CHARGE>  (1) 
1

>  <JCHEM_NUMBER_OF_RINGS>  (1) 
1

>  <JCHEM_PHYSIOLOGICAL_CHARGE>  (1) 
1

>  <JCHEM_PKA_STRONGEST_ACIDIC>  (1) 
13.653853954939184

>  <JCHEM_PKA_STRONGEST_BASIC>  (1) 
8.227442379036676

>  <JCHEM_POLAR_SURFACE_AREA>  (1) 
55.120000000000005

>  <JCHEM_REFRACTIVITY>  (1) 
58.857000000000006

>  <JCHEM_ROTATABLE_BOND_COUNT>  (1) 
2

>  <JCHEM_RULE_OF_FIVE>  (1) 
1

>  <ALOGPS_SOLUBILITY>  (1) 
1.60e+00 g/l

>  <JCHEM_TRADITIONAL_IUPAC>  (1) 
tetrahydrofolic acid

>  <JCHEM_VEBER_RULE>  (1) 
0

>  <DRUGBANK_ID>  (1) 
DB01056

>  <SECONDARY_ACCESSION_NUMBERS>  (1) 
APRD01266

>  <DRUG_GROUPS>  (1) 
approved; withdrawn

>  <GENERIC_NAME>  (1) 
Tocainide

>  <SYNONYMS>  (1) 
2-Amino-2',6'-propionoxylidide; 2-amino-N-(2,6-dimethylphenyl)propanamide; 2-Amino-N-(2,6-dimethylphenyl)propionamid; Alanyl-2,6-xylidide; Tocainida; Tocainide; Tocainidum

>  <PRODUCTS>  (1) 
Tonocard Tab 400 mg

>  <INTERNATIONAL_BRANDS>  (1) 
Tonocard

>  <SALTS>  (1) 
Tocainide hydrochloride

$$$$
