
     RDKit          2D

 14 13  0  0  0  0  0  0  0  0999 V2000
   -0.7139    0.0050    0.0000 C   0  0  0  0  0  0  0  0  0  0  0  0
   -0.7139   -0.8197    0.0000 C   0  0  0  0  0  0  0  0  0  0  0  0
   -1.4284    0.4176    0.0000 C   0  0  0  0  0  0  0  0  0  0  0  0
   -1.4284   -1.2323    0.0000 C   0  0  0  0  0  0  0  0  0  0  0  0
   -2.1428    0.0050    0.0000 C   0  0  0  0  0  0  0  0  0  0  0  0
   -2.1428   -0.8197    0.0000 C   0  0  0  0  0  0  0  0  0  0  0  0
    0.7148    0.0050    0.0000 C   0  0  0  0  0  0  0  0  0  0  0  0
    0.7148   -0.8197    0.0000 C   0  0  0  0  0  0  0  0  0  0  0  0
    0.0004    0.4176    0.0000 C   0  0  0  0  0  0  0  0  0  0  0  0
    0.0004   -1.2323    0.0000 C   0  0  0  0  0  0  0  0  0  0  0  0
    1.4340    0.4075    0.0000 C   0  0  0  0  0  0  0  0  0  0  0  0
    2.1428   -0.0144    0.0000 O   0  0  0  0  0  0  0  0  0  0  0  0
    1.4450    1.2324    0.0000 O   0  0  0  0  0  0  0  0  0  0  0  0
    1.4293   -1.2324    0.0000 C   0  0  0  0  0  0  0  0  0  0  0  0
  3  1  1  0
  4  2  1  0
  5  3  1  0
  6  4  1  0
  6  5  1  0
  9  7  1  0
 10  8  1  0
  1  9  1  0
  2 10  1  0
  7 11  1  0
 11 12  1  0
 11 13  2  0
  8 14  1  0
M  END
>  <DATABASE_ID>  (1) 
DB03017

>  <DATABASE_NAME>  (1) 
drugbank

>  <SMILES>  (1) 
CCCCCCCCCCCC(O)=O

>  <INCHI_IDENTIFIER>  (1) 
InChI=1S/C12H24O2/c1-2-3-4-5-6-7-8-9-10-11-12(13)14/h2-11H2,1H3,(H,13,14)

>  <INCHI_KEY>  (1) 
POULHZVOKOAJMA-UHFFFAOYSA-N

>  <FORMULA>  (1) 
C12H24O2

>  <MOLECULAR_WEIGHT>  (1) 
200.3178

>  <EXACT_MASS>  (1) 
200.177630012

>  <JCHEM_ACCEPTOR_COUNT>  (1) 
2

>  <JCHEM_ATOM_COUNT>  (1) 
38

>  <JCHEM_AVERAGE_POLARIZABILITY>  (1) 
25.846297240499034

>  <JCHEM_BIOAVAILABILITY>  (1) 
1

>  <JCHEM_DONOR_COUNT>  (1) 
1

>  <JCHEM_FORMAL_CHARGE>  (1) 
0

>  <JCHEM_GHOSE_FILTER>  (1) 
1

>  <JCHEM_IUPAC>  (1) 
dodecanoic acid

>  <ALOGPS_LOGP>  (1) 
5.13

>  <JCHEM_LOGP>  (1) 
4.478308117666667

>  <ALOGPS_LOGS>  (1) 
-4.30

>  <JCHEM_MDDR_LIKE_RULE>  (1) 
0

>  <JCHEM_NUMBER_OF_RINGS>  (1) 
0

>  <JCHEM_PHYSIOLOGICAL_CHARGE>  (1) 
-1

>  <JCHEM_PKA_STRONGEST_ACIDIC>  (1) 
4.952019655228562

>  <JCHEM_POLAR_SURFACE_AREA>  (1) 
37.3

>  <JCHEM_REFRACTIVITY>  (1) 
58.67959999999999

>  <JCHEM_ROTATABLE_BOND_COUNT>  (1) 
10

>  <JCHEM_RULE_OF_FIVE>  (1) 
1

>  <ALOGPS_SOLUBILITY>  (1) 
9.97e-03 g/l

>  <JCHEM_TRADITIONAL_IUPAC>  (1) 
lauric acid

>  <JCHEM_VEBER_RULE>  (1) 
1

>  <DRUGBANK_ID>  (1) 
DB03017

>  <SECONDARY_ACCESSION_NUMBERS>  (1) 
EXPT01112; EXPT02006

>  <DRUG_GROUPS>  (1) 
approved

>  <GENERIC_NAME>  (1) 
Lauric acid

>  <SYNONYMS>  (1) 
1-undecanecarboxylic acid; ABL; C12 fatty acid; C12:0; Coconut oil fatty acids; DAO; Dodecanoic acid; Dodecoic acid; Dodecylcarboxylate; Dodecylic acid; Duodecyclic acid; Duodecylic acid; Laurinsäure; Laurostearic acid; n-dodecanoic acid; Undecane-1-carboxylic acid; Vulvic acid

>  <PRODUCTS>  (1) 
Jayjun Anti Dust Fresh Foam Cleanser; Jayjun New Real Water Brightening Black Mask Step 01 Real Water Shining Vita Cleansing Foa M; Jayjun Real Water Brightening Black Mask Step 01 Real Water Cleansing Foa M; Jayjun Real Water Shining Cleansing Foa M; Jayjun Real Water Shining Vita Cleansing Foa M; Vitafol Plus

$$$$
