
     RDKit          2D

 18 17  0  0  0  0  0  0  0  0999 V2000
    1.4009    0.7146    0.0000 Si  0  0  0  0  0  4  0  0  0  0  0  0
    1.8205    1.4329    0.0000 O   0  0  0  0  0  0  0  0  0  0  0  0
    2.1192    0.3022    0.0000 O   0  0  0  0  0  0  0  0  0  0  0  0
    0.6897    1.1271    0.0000 O   0  0  0  0  0  0  0  0  0  0  0  0
    0.9956    0.0035    0.0000 C   0  0  0  0  0  0  0  0  0  0  0  0
    0.1706    0.0035    0.0000 C   0  0  0  0  0  0  0  0  0  0  0  0
    2.6526    1.4329    0.0000 C   0  0  0  0  0  0  0  0  0  0  0  0
    2.8375    0.7146    0.0000 C   0  0  0  0  0  0  0  0  0  0  0  0
   -0.0284    0.7146    0.0000 C   0  0  0  0  0  0  0  0  0  0  0  0
   -0.2489   -0.7147    0.0000 C   0  0  0  0  0  0  0  0  0  0  0  0
   -1.0739   -0.7147    0.0000 C   0  0  0  0  0  0  0  0  0  0  0  0
    3.0579    2.1512    0.0000 C   0  0  0  0  0  0  0  0  0  0  0  0
    3.5558    0.3022    0.0000 C   0  0  0  0  0  0  0  0  0  0  0  0
   -0.7395    1.1271    0.0000 C   0  0  0  0  0  0  0  0  0  0  0  0
   -1.4864   -1.4330    0.0000 C   0  0  0  0  0  0  0  0  0  0  0  0
   -2.3111   -1.4330    0.0000 C   0  0  0  0  0  0  0  0  0  0  0  0
   -2.7309   -2.1512    0.0000 C   0  0  0  0  0  0  0  0  0  0  0  0
   -3.5558   -2.1512    0.0000 C   0  0  0  0  0  0  0  0  0  0  0  0
  1  2  1  0
  1  3  1  0
  1  4  1  0
  1  5  1  0
  2  7  1  0
  3  8  1  0
  4  9  1  0
  5  6  1  0
  6 10  1  0
  7 12  1  0
  8 13  1  0
  9 14  1  0
 10 11  1  0
 11 15  1  0
 15 16  1  0
 16 17  1  0
 17 18  1  0
M  END
>  <DATABASE_ID>  (1) 
DB11267

>  <DATABASE_NAME>  (1) 
drugbank

>  <SMILES>  (1) 
CCCCCCCC[Si](OCC)(OCC)OCC

>  <INCHI_IDENTIFIER>  (1) 
InChI=1S/C14H32O3Si/c1-5-9-10-11-12-13-14-18(15-6-2,16-7-3)17-8-4/h5-14H2,1-4H3

>  <INCHI_KEY>  (1) 
MSRJTTSHWYDFIU-UHFFFAOYSA-N

>  <FORMULA>  (1) 
C14H32O3Si

>  <MOLECULAR_WEIGHT>  (1) 
276.492

>  <EXACT_MASS>  (1) 
276.212071425

>  <JCHEM_ACCEPTOR_COUNT>  (1) 
3

>  <JCHEM_ATOM_COUNT>  (1) 
50

>  <JCHEM_AVERAGE_POLARIZABILITY>  (1) 
34.0148535886415

>  <JCHEM_BIOAVAILABILITY>  (1) 
1

>  <JCHEM_DONOR_COUNT>  (1) 
0

>  <JCHEM_FORMAL_CHARGE>  (1) 
0

>  <JCHEM_GHOSE_FILTER>  (1) 
1

>  <JCHEM_IUPAC>  (1) 
triethoxy(octyl)silane

>  <ALOGPS_LOGP>  (1) 
5.89

>  <JCHEM_LOGP>  (1) 
4.4215

>  <ALOGPS_LOGS>  (1) 
-5.53

>  <JCHEM_MDDR_LIKE_RULE>  (1) 
0

>  <JCHEM_NUMBER_OF_RINGS>  (1) 
0

>  <JCHEM_PHYSIOLOGICAL_CHARGE>  (1) 
0

>  <JCHEM_PKA_STRONGEST_BASIC>  (1) 
-3.7803873192234323

>  <JCHEM_POLAR_SURFACE_AREA>  (1) 
27.69

>  <JCHEM_REFRACTIVITY>  (1) 
73.11319999999999

>  <JCHEM_ROTATABLE_BOND_COUNT>  (1) 
13

>  <JCHEM_RULE_OF_FIVE>  (1) 
1

>  <ALOGPS_SOLUBILITY>  (1) 
8.22e-04 g/l

>  <JCHEM_TRADITIONAL_IUPAC>  (1) 
silane, triethoxyoctyl-

>  <JCHEM_VEBER_RULE>  (1) 
0

>  <DRUGBANK_ID>  (1) 
DB11267

>  <DRUG_GROUPS>  (1) 
approved

>  <GENERIC_NAME>  (1) 
Triethoxycaprylylsilane

>  <SYNONYMS>  (1) 
Caprylyltriethoxysilane; n-Octyltriethoxysilane; Octyl(triethoxy)silane; Octyltriethoxysilane; Triethoxyoctylsilane

>  <PRODUCTS>  (1) 
Isaknox Ageless Serum Blemish Balm

$$$$
