 
     RDKit          2D

 22 24  0  0  0  0  0  0  0  0999 V2000
   11.6738  -11.0137    0.0000 C   0  0  0  0  0  0  0  0  0  0  0  0
   11.6738  -11.8387    0.0000 C   0  0  0  0  0  0  0  0  0  0  0  0
   12.3750  -12.2512    0.0000 C   0  0  0  0  0  0  0  0  0  0  0  0
   12.3750  -10.6012    0.0000 C   0  0  0  0  0  0  0  0  0  0  0  0
   13.1175  -11.0137    0.0000 C   0  0  0  0  0  0  0  0  0  0  0  0
   13.1175  -11.8387    0.0000 C   0  0  0  0  0  0  0  0  0  0  0  0
   13.9013  -12.1275    0.0000 C   0  0  0  0  0  0  0  0  0  0  0  0
   14.3550  -11.4262    0.0000 C   0  0  0  0  0  0  0  0  0  0  0  0
   13.9013  -10.7662    0.0000 C   0  0  0  0  0  0  0  0  0  0  0  0
   15.1800  -11.4262    0.0000 C   0  0  0  0  0  0  0  0  0  0  0  0
   15.5925  -12.1687    0.0000 C   0  0  0  0  0  0  0  0  0  0  0  0
   16.4175  -12.1687    0.0000 N   0  0  0  0  0  0  0  0  0  0  0  0
   16.8300  -12.8700    0.0000 C   0  0  0  0  0  0  0  0  0  0  0  0
   16.8300  -11.4675    0.0000 C   0  0  0  0  0  0  0  0  0  0  0  0
   13.9013   -9.9412    0.0000 C   0  0  0  0  0  0  0  0  0  0  0  0
   14.6025   -9.5287    0.0000 C   0  0  0  0  0  0  0  0  0  0  0  0
   13.1588   -9.5287    0.0000 C   0  0  0  0  0  0  0  0  0  0  0  0
   15.3038   -9.9412    0.0000 C   0  0  0  0  0  0  0  0  0  0  0  0
   16.0050   -9.5287    0.0000 C   0  0  0  0  0  0  0  0  0  0  0  0
   16.0050   -8.7037    0.0000 C   0  0  0  0  0  0  0  0  0  0  0  0
   15.3038   -8.2912    0.0000 C   0  0  0  0  0  0  0  0  0  0  0  0
   14.6025   -8.7037    0.0000 N   0  0  0  0  0  0  0  0  0  0  0  0
 12 14  1  0
  2  3  2  0
  9 15  1  0
  3  6  1  0
 15 16  1  0
  5  6  2  0
 15 17  1  0
  6  7  1  0
  7  8  1  0
  8  9  2  0
  9  5  1  0
  5  4  1  0
 16 18  2  0
 18 19  1  0
 19 20  2  0
 20 21  1  0
 21 22  2  0
 22 16  1  0
  8 10  1  0
  4  1  2  0
 10 11  1  0
 11 12  1  0
 12 13  1  0
  1  2  1  0
M  END
>  <DATABASE_ID>  (1) 
DB08801

>  <DATABASE_NAME>  (1) 
drugbank

>  <SMILES>  (1) 
CC(C1=C(CCN(C)C)CC2=CC=CC=C12)C1=CC=CC=N1

>  <INCHI_IDENTIFIER>  (1) 
InChI=1S/C20H24N2/c1-15(19-10-6-7-12-21-19)20-17(11-13-22(2)3)14-16-8-4-5-9-18(16)20/h4-10,12,15H,11,13-14H2,1-3H3

>  <INCHI_KEY>  (1) 
MVMQESMQSYOVGV-UHFFFAOYSA-N

>  <FORMULA>  (1) 
C20H24N2

>  <MOLECULAR_WEIGHT>  (1) 
292.418

>  <EXACT_MASS>  (1) 
292.193948778

>  <JCHEM_ACCEPTOR_COUNT>  (1) 
2

>  <JCHEM_ATOM_COUNT>  (1) 
46

>  <JCHEM_AVERAGE_NEUTRAL_MICROSPECIES_CHARGE>  (1) 
1.0003195644217693

>  <JCHEM_AVERAGE_POLARIZABILITY>  (1) 
34.99038147919448

>  <JCHEM_BIOAVAILABILITY>  (1) 
1

>  <JCHEM_DONOR_COUNT>  (1) 
0

>  <JCHEM_FORMAL_CHARGE>  (1) 
0

>  <JCHEM_GHOSE_FILTER>  (1) 
1

>  <JCHEM_IUPAC>  (1) 
dimethyl(2-{3-[1-(pyridin-2-yl)ethyl]-1H-inden-2-yl}ethyl)amine

>  <ALOGPS_LOGP>  (1) 
4.03

>  <JCHEM_LOGP>  (1) 
3.738704610333334

>  <ALOGPS_LOGS>  (1) 
-3.88

>  <JCHEM_MDDR_LIKE_RULE>  (1) 
0

>  <JCHEM_NEUTRAL_CHARGE>  (1) 
1

>  <JCHEM_NUMBER_OF_RINGS>  (1) 
3

>  <JCHEM_PHYSIOLOGICAL_CHARGE>  (1) 
1

>  <JCHEM_PKA_STRONGEST_ACIDIC>  (1) 
18.193469149769694

>  <JCHEM_PKA_STRONGEST_BASIC>  (1) 
9.704140921507342

>  <JCHEM_POLAR_SURFACE_AREA>  (1) 
16.130000000000003

>  <JCHEM_REFRACTIVITY>  (1) 
93.5661

>  <JCHEM_ROTATABLE_BOND_COUNT>  (1) 
5

>  <JCHEM_RULE_OF_FIVE>  (1) 
1

>  <ALOGPS_SOLUBILITY>  (1) 
3.84e-02 g/l

>  <JCHEM_TRADITIONAL_IUPAC>  (1) 
tetrahydrofolic acid

>  <JCHEM_VEBER_RULE>  (1) 
1

>  <DRUGBANK_ID>  (1) 
DB08801

>  <DRUG_GROUPS>  (1) 
approved; investigational

>  <GENERIC_NAME>  (1) 
Dimetindene

>  <SYNONYMS>  (1) 
Dimethindene; Dimetindene; Dimetindeno

>  <INTERNATIONAL_BRANDS>  (1) 
Fenistil; Foristal

>  <SALTS>  (1) 
Dimetindene maleate

$$$$
