
     RDKit          2D

 21 22  0  0  1  0  0  0  0  0999 V2000
    4.5080   -1.6500    0.0000 Cl  0  0  0  0  0  0  0  0  0  0  0  0
    3.0791    0.8250    0.0000 O   0  0  0  0  0  0  0  0  0  0  0  0
    4.5080    0.0000    0.0000 O   0  0  0  0  0  0  0  0  0  0  0  0
    6.6515   -3.7126    0.0000 O   0  0  0  0  0  0  0  0  0  0  0  0
    3.0791    2.4751    0.0000 N   0  0  0  0  0  0  0  0  0  0  0  0
    5.2224   -0.4125    0.0000 N   0  0  0  0  0  0  0  0  0  0  0  0
    6.6515   -2.8876    0.0000 N   0  0  0  0  0  0  0  0  0  0  0  0
    3.0791    3.3001    0.0000 C   0  0  0  0  0  0  0  0  0  0  0  0
    2.3645    2.0625    0.0000 C   0  0  0  0  0  0  0  0  0  0  0  0
    2.3645    3.7126    0.0000 C   0  0  0  0  0  0  0  0  0  0  0  0
    1.6500    2.4751    0.0000 C   0  0  0  0  0  0  0  0  0  0  0  0
    1.6500    3.3001    0.0000 C   0  0  0  0  0  0  0  0  0  0  0  0
    3.7935    2.0625    0.0000 C   0  0  0  0  0  0  0  0  0  0  0  0
    3.7935    1.2375    0.0000 C   0  0  0  0  0  0  0  0  0  0  0  0
    4.5080    0.8250    0.0000 C   0  0  0  0  0  0  0  0  0  0  0  0
    5.2224   -1.2375    0.0000 C   0  0  0  0  0  0  0  0  0  0  0  0
    5.9370   -1.6500    0.0000 C   0  0  0  0  0  0  0  0  0  0  0  0
    5.9370   -2.4751    0.0000 C   0  0  0  0  0  0  0  0  0  0  0  0
    6.6515   -1.2375    0.0000 C   0  0  0  0  0  0  0  0  0  0  0  0
    7.3659   -1.6500    0.0000 C   0  0  0  0  0  0  0  0  0  0  0  0
    7.3659   -2.4751    0.0000 C   0  0  0  0  0  0  0  0  0  0  0  0
  1 16  1  0
 14  2  1  6
  3  6  1  0
  3 15  1  0
  4  7  1  0
  5  8  1  0
  5  9  1  0
  5 13  1  0
  6 16  2  3
  7 18  2  0
  7 21  1  0
  8 10  1  0
  9 11  1  0
 10 12  1  0
 11 12  1  0
 13 14  1  0
 14 15  1  0
 16 17  1  0
 17 18  1  0
 17 19  2  0
 19 20  1  0
 20 21  2  0
M  CHG  2   4  -1   7   1
M  END
>  <DATABASE_ID>  (1) 
DB05025

>  <DATABASE_NAME>  (1) 
drugbank

>  <SMILES>  (1) 
O[C@@H](CON=C(Cl)C1=C[N+]([O-])=CC=C1)CN1CCCCC1

>  <INCHI_IDENTIFIER>  (1) 
InChI=1S/C14H20ClN3O3/c15-14(12-5-4-8-18(20)9-12)16-21-11-13(19)10-17-6-2-1-3-7-17/h4-5,8-9,13,19H,1-3,6-7,10-11H2/t13-/m1/s1

>  <INCHI_KEY>  (1) 
SGEIEGAXKLMUIZ-CYBMUJFWSA-N

>  <FORMULA>  (1) 
C14H20ClN3O3

>  <MOLECULAR_WEIGHT>  (1) 
313.78

>  <EXACT_MASS>  (1) 
313.119319228

>  <JCHEM_ACCEPTOR_COUNT>  (1) 
5

>  <JCHEM_ATOM_COUNT>  (1) 
41

>  <JCHEM_AVERAGE_NEUTRAL_MICROSPECIES_CHARGE>  (1) 
0.9927497502935749

>  <JCHEM_AVERAGE_POLARIZABILITY>  (1) 
32.98134012007559

>  <JCHEM_BIOAVAILABILITY>  (1) 
1

>  <JCHEM_DONOR_COUNT>  (1) 
1

>  <JCHEM_FORMAL_CHARGE>  (1) 
0

>  <JCHEM_GHOSE_FILTER>  (1) 
0

>  <JCHEM_IUPAC>  (1) 
3-[chloro({[(2R)-2-hydroxy-3-(piperidin-1-yl)propoxy]imino})methyl]pyridin-1-ium-1-olate

>  <ALOGPS_LOGP>  (1) 
0.45

>  <JCHEM_LOGP>  (1) 
-0.44170851700000013

>  <ALOGPS_LOGS>  (1) 
-3.12

>  <JCHEM_MDDR_LIKE_RULE>  (1) 
0

>  <JCHEM_NEUTRAL_CHARGE>  (1) 
1

>  <JCHEM_NUMBER_OF_RINGS>  (1) 
2

>  <JCHEM_PHYSIOLOGICAL_CHARGE>  (1) 
1

>  <JCHEM_PKA_STRONGEST_ACIDIC>  (1) 
14.004873504325898

>  <JCHEM_PKA_STRONGEST_BASIC>  (1) 
9.136485889418392

>  <JCHEM_POLAR_SURFACE_AREA>  (1) 
72.0

>  <JCHEM_REFRACTIVITY>  (1) 
82.75570000000002

>  <JCHEM_ROTATABLE_BOND_COUNT>  (1) 
6

>  <JCHEM_RULE_OF_FIVE>  (1) 
1

>  <ALOGPS_SOLUBILITY>  (1) 
2.37e-01 g/l

>  <JCHEM_TRADITIONAL_IUPAC>  (1) 
biotin

>  <JCHEM_VEBER_RULE>  (1) 
0

>  <DRUGBANK_ID>  (1) 
DB05025

>  <DRUG_GROUPS>  (1) 
approved

>  <GENERIC_NAME>  (1) 
Arimoclomol

>  <SYNONYMS>  (1) 
3-PYRIDINECARBOXIMIDOYL CHLORIDE, N-((2R)-2-HYDROXY-3-(1-PIPERIDINYL)PROPOXY), 1-OXIDE; Arimoclomol; BRX-220 FREE BASE; N-[(2R)-2-Hydroxy-3-(1-piperidyl)propoxy]pyridine-3-carboximidoyl chloride, 1-oxide

>  <PRODUCTS>  (1) 
Miplyffa

>  <SALTS>  (1) 
Arimoclomol citrate; Arimoclomol maleate

$$$$
