576
     RDKit          2D

 17 18  0  0  0  0  0  0  0  0999 V2000
    2.4751    0.6631    0.0000 S   0  0  0  0  0  0  0  0  0  0  0  0
    3.9433    1.5651    0.0000 S   0  0  0  0  0  0  0  0  0  0  0  0
    1.6500    0.6631    0.0000 O   0  0  0  0  0  0  0  0  0  0  0  0
    3.3001    0.6631    0.0000 O   0  0  0  0  0  0  0  0  0  0  0  0
    2.4751    1.4882    0.0000 N   0  0  0  0  0  0  0  0  0  0  0  0
    3.2758    2.7212    0.0000 N   0  0  0  0  0  0  0  0  0  0  0  0
    2.4751   -2.6369    0.0000 N   0  0  0  0  0  0  0  0  0  0  0  0
    4.0828    2.8927    0.0000 N   0  0  0  0  0  0  0  0  0  0  0  0
    2.4751   -0.1619    0.0000 C   0  0  0  0  0  0  0  0  0  0  0  0
    1.7606   -0.5744    0.0000 C   0  0  0  0  0  0  0  0  0  0  0  0
    3.1895   -0.5744    0.0000 C   0  0  0  0  0  0  0  0  0  0  0  0
    2.4751   -1.8119    0.0000 C   0  0  0  0  0  0  0  0  0  0  0  0
    1.7606   -1.3994    0.0000 C   0  0  0  0  0  0  0  0  0  0  0  0
    3.1895   -1.3994    0.0000 C   0  0  0  0  0  0  0  0  0  0  0  0
    3.1895    1.9007    0.0000 C   0  0  0  0  0  0  0  0  0  0  0  0
    4.4953    2.1782    0.0000 C   0  0  0  0  0  0  0  0  0  0  0  0
    5.3158    2.0920    0.0000 C   0  0  0  0  0  0  0  0  0  0  0  0
  1  3  2  0
  1  4  2  0
  1  5  1  0
  1  9  1  0
  2 15  1  0
  2 16  1  0
  5 15  1  0
  6  8  1  0
  6 15  2  0
  7 12  1  0
  8 16  2  0
  9 10  2  0
  9 11  1  0
 10 13  1  0
 11 14  2  0
 12 13  2  0
 12 14  1  0
 16 17  1  0
M  END
>  <DATABASE_ID>  (1) 
DB00576

>  <DATABASE_NAME>  (1) 
drugbank

>  <SMILES>  (1) 
CC1=NN=C(NS(=O)(=O)C2=CC=C(N)C=C2)S1

>  <INCHI_IDENTIFIER>  (1) 
InChI=1S/C9H10N4O2S2/c1-6-11-12-9(16-6)13-17(14,15)8-4-2-7(10)3-5-8/h2-5H,10H2,1H3,(H,12,13)

>  <INCHI_KEY>  (1) 
VACCAVUAMIDAGB-UHFFFAOYSA-N

>  <FORMULA>  (1) 
C9H10N4O2S2

>  <MOLECULAR_WEIGHT>  (1) 
270.331

>  <EXACT_MASS>  (1) 
270.024516964

>  <JCHEM_ACCEPTOR_COUNT>  (1) 
5

>  <JCHEM_ATOM_COUNT>  (1) 
27

>  <JCHEM_AVERAGE_NEUTRAL_MICROSPECIES_CHARGE>  (1) 
-0.662211335445503

>  <JCHEM_AVERAGE_POLARIZABILITY>  (1) 
26.264209134603565

>  <JCHEM_BIOAVAILABILITY>  (1) 
1

>  <JCHEM_DONOR_COUNT>  (1) 
2

>  <JCHEM_FORMAL_CHARGE>  (1) 
0

>  <JCHEM_GHOSE_FILTER>  (1) 
1

>  <JCHEM_IUPAC>  (1) 
4-amino-N-(5-methyl-1,3,4-thiadiazol-2-yl)benzene-1-sulfonamide

>  <ALOGPS_LOGP>  (1) 
0.53

>  <JCHEM_LOGP>  (1) 
0.21434596466666644

>  <ALOGPS_LOGS>  (1) 
-2.65

>  <JCHEM_MDDR_LIKE_RULE>  (1) 
0

>  <JCHEM_NEUTRAL_CHARGE>  (1) 
-1

>  <JCHEM_NUMBER_OF_RINGS>  (1) 
2

>  <JCHEM_PHYSIOLOGICAL_CHARGE>  (1) 
-1

>  <JCHEM_PKA_STRONGEST_ACIDIC>  (1) 
6.707642187543112

>  <JCHEM_PKA_STRONGEST_BASIC>  (1) 
1.951757408153643

>  <JCHEM_POLAR_SURFACE_AREA>  (1) 
97.97

>  <JCHEM_REFRACTIVITY>  (1) 
66.8358

>  <JCHEM_ROTATABLE_BOND_COUNT>  (1) 
2

>  <JCHEM_RULE_OF_FIVE>  (1) 
1

>  <ALOGPS_SOLUBILITY>  (1) 
6.11e-01 g/l

>  <JCHEM_TRADITIONAL_IUPAC>  (1) 
tetrahydrofolic acid

>  <JCHEM_VEBER_RULE>  (1) 
0

>  <DRUGBANK_ID>  (1) 
DB00576

>  <SECONDARY_ACCESSION_NUMBERS>  (1) 
APRD00684

>  <DRUG_GROUPS>  (1) 
approved; vet_approved

>  <GENERIC_NAME>  (1) 
Sulfamethizole

>  <SYNONYMS>  (1) 
Sulfaméthizol; Sulfamethizol; Sulfamethizole; Sulfamethizolum; Sulfamethylthiadiazole; Sulfametizol

>  <PRODUCTS>  (1) 
Urobiotic

>  <INTERNATIONAL_BRANDS>  (1) 
Lucosil; Rufol; Thiosulfil; Thiosulfil Forte

$$$$
