
     RDKit          2D

  1  0  0  0  0  0  0  0  0  0999 V2000
    0.0000    0.0000    0.0000 Xe  0  0  0  0  0 15  0  0  0  0  0  0
M  ISO  1   1 127
M  END
>  <DATABASE_ID>  (1) 
DB09461

>  <DATABASE_NAME>  (1) 
drugbank

>  <SMILES>  (1) 
[127Xe]

>  <INCHI_IDENTIFIER>  (1) 
InChI=1S/Xe/i1-4

>  <INCHI_KEY>  (1) 
FHNFHKCVQCLJFQ-AHCXROLUSA-N

>  <FORMULA>  (1) 
Xe

>  <MOLECULAR_WEIGHT>  (1) 
126.9052

>  <EXACT_MASS>  (1) 
126.905179581

>  <JCHEM_ACCEPTOR_COUNT>  (1) 
0

>  <JCHEM_ATOM_COUNT>  (1) 
1

>  <JCHEM_AVERAGE_POLARIZABILITY>  (1) 
1.7784

>  <JCHEM_BIOAVAILABILITY>  (1) 
1

>  <JCHEM_DONOR_COUNT>  (1) 
0

>  <JCHEM_FORMAL_CHARGE>  (1) 
0

>  <JCHEM_GHOSE_FILTER>  (1) 
0

>  <JCHEM_IUPAC>  (1) 
(127Xe)xenon

>  <JCHEM_LOGP>  (1) 
0.0

>  <JCHEM_MDDR_LIKE_RULE>  (1) 
0

>  <JCHEM_NUMBER_OF_RINGS>  (1) 
0

>  <JCHEM_PHYSIOLOGICAL_CHARGE>  (1) 
0

>  <JCHEM_POLAR_SURFACE_AREA>  (1) 
0.0

>  <JCHEM_REFRACTIVITY>  (1) 
0.0

>  <JCHEM_ROTATABLE_BOND_COUNT>  (1) 
0

>  <JCHEM_RULE_OF_FIVE>  (1) 
1

>  <JCHEM_TRADITIONAL_IUPAC>  (1) 
(127Xe)xenon

>  <JCHEM_VEBER_RULE>  (1) 
1

>  <DRUGBANK_ID>  (1) 
DB09461

>  <DRUG_GROUPS>  (1) 
approved

>  <GENERIC_NAME>  (1) 
Xenon Xe-127

>  <SYNONYMS>  (1) 
Xenon Xe 127; Xenon Xe-127; Xenon-127

$$$$
