1367
     RDKit          2D

 13 14  0  0  1  0  0  0  0  0999 V2000
    4.1159    0.0242    0.0000 N   0  0  0  0  0  0  0  0  0  0  0  0
    3.8597   -0.7600    0.0000 C   0  0  0  0  0  0  0  0  0  0  0  0
    4.3412   -1.4239    0.0000 C   0  0  0  0  0  0  0  0  0  0  0  0
    3.8597   -2.0878    0.0000 C   0  0  0  0  0  0  0  0  0  0  0  0
    3.0791   -1.0114    0.0000 C   0  0  0  0  0  0  0  0  0  0  0  0
    3.0791   -1.8364    0.0000 C   0  0  0  0  0  0  0  0  0  0  0  0
    2.3645   -0.5989    0.0000 C   0  0  0  0  0  0  0  0  0  0  0  0
    2.3645   -2.2489    0.0000 C   0  0  0  0  0  0  0  0  0  0  0  0
    4.9232    0.1944    0.0000 C   0  0  0  0  0  0  0  0  0  0  0  0
    1.6500   -1.0114    0.0000 C   0  0  0  0  0  0  0  0  0  0  0  0
    1.6500   -1.8364    0.0000 C   0  0  0  0  0  0  0  0  0  0  0  0
    5.1795    0.9786    0.0000 C   0  0  0  0  0  0  0  0  0  0  0  0
    5.4359    1.7627    0.0000 C   0  0  0  0  0  0  0  0  0  0  0  0
  2  1  1  6
  1  9  1  0
  2  3  1  0
  2  5  1  0
  3  4  1  0
  4  6  1  0
  5  6  2  0
  5  7  1  0
  6  8  1  0
  7 10  2  0
  8 11  2  0
  9 12  1  0
 10 11  1  0
 12 13  3  0
M  END
>  <DATABASE_ID>  (1) 
DB01367

>  <DATABASE_NAME>  (1) 
drugbank

>  <SMILES>  (1) 
C#CCN[C@@H]1CCC2=CC=CC=C12

>  <INCHI_IDENTIFIER>  (1) 
InChI=1S/C12H13N/c1-2-9-13-12-8-7-10-5-3-4-6-11(10)12/h1,3-6,12-13H,7-9H2/t12-/m1/s1

>  <INCHI_KEY>  (1) 
RUOKEQAAGRXIBM-GFCCVEGCSA-N

>  <FORMULA>  (1) 
C12H13N

>  <MOLECULAR_WEIGHT>  (1) 
171.2383

>  <EXACT_MASS>  (1) 
171.104799421

>  <JCHEM_ACCEPTOR_COUNT>  (1) 
1

>  <JCHEM_ATOM_COUNT>  (1) 
26

>  <JCHEM_AVERAGE_NEUTRAL_MICROSPECIES_CHARGE>  (1) 
0.9614720765641677

>  <JCHEM_AVERAGE_POLARIZABILITY>  (1) 
20.245577692400097

>  <JCHEM_BIOAVAILABILITY>  (1) 
1

>  <JCHEM_DONOR_COUNT>  (1) 
1

>  <JCHEM_FORMAL_CHARGE>  (1) 
0

>  <JCHEM_GHOSE_FILTER>  (1) 
1

>  <JCHEM_IUPAC>  (1) 
(1R)-N-(prop-2-yn-1-yl)-2,3-dihydro-1H-inden-1-amine

>  <ALOGPS_LOGP>  (1) 
2.26

>  <JCHEM_LOGP>  (1) 
2.3039019329999997

>  <ALOGPS_LOGS>  (1) 
-3.84

>  <JCHEM_MDDR_LIKE_RULE>  (1) 
0

>  <JCHEM_NEUTRAL_CHARGE>  (1) 
1

>  <JCHEM_NUMBER_OF_RINGS>  (1) 
2

>  <JCHEM_PHYSIOLOGICAL_CHARGE>  (1) 
1

>  <JCHEM_PKA_STRONGEST_BASIC>  (1) 
8.397161073617074

>  <JCHEM_POLAR_SURFACE_AREA>  (1) 
12.03

>  <JCHEM_REFRACTIVITY>  (1) 
54.46700000000001

>  <JCHEM_ROTATABLE_BOND_COUNT>  (1) 
2

>  <JCHEM_RULE_OF_FIVE>  (1) 
1

>  <ALOGPS_SOLUBILITY>  (1) 
2.49e-02 g/l

>  <JCHEM_TRADITIONAL_IUPAC>  (1) 
biotin

>  <JCHEM_VEBER_RULE>  (1) 
1

>  <DRUGBANK_ID>  (1) 
DB01367

>  <SECONDARY_ACCESSION_NUMBERS>  (1) 
EXPT02758

>  <DRUG_GROUPS>  (1) 
approved; investigational

>  <GENERIC_NAME>  (1) 
Rasagiline

>  <SYNONYMS>  (1) 
(1R)-N-propargylindan-1-amine; (R)-indan-1-yl-prop-2-ynyl-amine; (R)-N-2-Propynyl-1-indanamine; RAS; Rasagilina; Rasagiline

>  <PRODUCTS>  (1) 
Ag-rasagiline; Apo-rasagiline; Asn-rasagiline; Azilect; Jamp Rasagiline; Mint-rasagiline; Rasagiline; Rasagiline Mesylate; Rasagiline Mylan; Rasagiline Ratiopharm; Rasagiline mesylate; Teva-rasagiline

>  <SALTS>  (1) 
Rasagiline mesylate; Rasagiline tartrate

$$$$
