1365
     RDKit          2D

 12 12  0  0  0  0  0  0  0  0999 V2000
    3.7935    1.2375    0.0000 N   0  0  0  0  0  0  0  0  0  0  0  0
    3.0791    0.8250    0.0000 C   0  0  0  0  0  0  0  0  0  0  0  0
    2.3645    0.4125    0.0000 C   0  0  0  0  0  0  0  0  0  0  0  0
    2.6665    1.5395    0.0000 C   0  0  0  0  0  0  0  0  0  0  0  0
    3.4916    0.1106    0.0000 C   0  0  0  0  0  0  0  0  0  0  0  0
    2.3645   -0.4125    0.0000 C   0  0  0  0  0  0  0  0  0  0  0  0
    3.7935    2.0625    0.0000 C   0  0  0  0  0  0  0  0  0  0  0  0
    3.0791   -0.8250    0.0000 C   0  0  0  0  0  0  0  0  0  0  0  0
    1.6500   -0.8250    0.0000 C   0  0  0  0  0  0  0  0  0  0  0  0
    3.0791   -1.6500    0.0000 C   0  0  0  0  0  0  0  0  0  0  0  0
    1.6500   -1.6500    0.0000 C   0  0  0  0  0  0  0  0  0  0  0  0
    2.3645   -2.0625    0.0000 C   0  0  0  0  0  0  0  0  0  0  0  0
  1  2  1  0
  1  7  1  0
  2  3  1  0
  2  4  1  0
  2  5  1  0
  3  6  1  0
  6  8  2  0
  6  9  1  0
  8 10  1  0
  9 11  2  0
 10 12  2  0
 11 12  1  0
M  END
>  <DATABASE_ID>  (1) 
DB01365

>  <DATABASE_NAME>  (1) 
drugbank

>  <SMILES>  (1) 
CNC(C)(C)CC1=CC=CC=C1

>  <INCHI_IDENTIFIER>  (1) 
InChI=1S/C11H17N/c1-11(2,12-3)9-10-7-5-4-6-8-10/h4-8,12H,9H2,1-3H3

>  <INCHI_KEY>  (1) 
RXQCGGRTAILOIN-UHFFFAOYSA-N

>  <FORMULA>  (1) 
C11H17N

>  <MOLECULAR_WEIGHT>  (1) 
163.2594

>  <EXACT_MASS>  (1) 
163.136099549

>  <JCHEM_ACCEPTOR_COUNT>  (1) 
1

>  <JCHEM_ATOM_COUNT>  (1) 
29

>  <JCHEM_AVERAGE_NEUTRAL_MICROSPECIES_CHARGE>  (1) 
0.999501359609679

>  <JCHEM_AVERAGE_POLARIZABILITY>  (1) 
19.792070710822706

>  <JCHEM_BIOAVAILABILITY>  (1) 
1

>  <JCHEM_DONOR_COUNT>  (1) 
1

>  <JCHEM_FORMAL_CHARGE>  (1) 
0

>  <JCHEM_GHOSE_FILTER>  (1) 
1

>  <JCHEM_IUPAC>  (1) 
methyl(2-methyl-1-phenylpropan-2-yl)amine

>  <ALOGPS_LOGP>  (1) 
2.54

>  <JCHEM_LOGP>  (1) 
2.5174075436666663

>  <ALOGPS_LOGS>  (1) 
-2.55

>  <JCHEM_MDDR_LIKE_RULE>  (1) 
0

>  <JCHEM_NEUTRAL_CHARGE>  (1) 
1

>  <JCHEM_NUMBER_OF_RINGS>  (1) 
1

>  <JCHEM_PHYSIOLOGICAL_CHARGE>  (1) 
1

>  <JCHEM_PKA_STRONGEST_BASIC>  (1) 
10.301995935383097

>  <JCHEM_POLAR_SURFACE_AREA>  (1) 
12.03

>  <JCHEM_REFRACTIVITY>  (1) 
53.11800000000001

>  <JCHEM_ROTATABLE_BOND_COUNT>  (1) 
3

>  <JCHEM_RULE_OF_FIVE>  (1) 
1

>  <ALOGPS_SOLUBILITY>  (1) 
4.57e-01 g/l

>  <JCHEM_TRADITIONAL_IUPAC>  (1) 
tetrahydrofolic acid

>  <JCHEM_VEBER_RULE>  (1) 
1

>  <DRUGBANK_ID>  (1) 
DB01365

>  <DRUG_GROUPS>  (1) 
approved; withdrawn

>  <GENERIC_NAME>  (1) 
Mephentermine

>  <SYNONYMS>  (1) 
Mefentermina; Mephentermine; Mephenterminum

>  <PRODUCTS>  (1) 
Wyamine Sulfate Injection Liq 30mg/ml

>  <INTERNATIONAL_BRANDS>  (1) 
Wyamine; Wyfentermina

>  <SALTS>  (1) 
Mephentermine sulfate

$$$$
