
     RDKit          2D

  4  3  0  0  0  0  0  0  0  0999 V2000
    1.2375    0.7145    0.0000 O   0  0  0  0  0  0  0  0  0  0  0  0
    0.8250    0.0000    0.0000 Se  0  0  0  0  0  4  0  0  0  0  0  0
    1.2375   -0.7145    0.0000 O   0  0  0  0  0  0  0  0  0  0  0  0
    0.0000    0.0000    0.0000 O   0  0  0  0  0  0  0  0  0  0  0  0
  1  2  1  0
  2  3  1  0
  2  4  2  0
M  END
>  <DATABASE_ID>  (1) 
DB11127

>  <DATABASE_NAME>  (1) 
drugbank

>  <SMILES>  (1) 
O[Se](O)=O

>  <INCHI_IDENTIFIER>  (1) 
InChI=1S/H2O3Se/c1-4(2)3/h(H2,1,2,3)

>  <INCHI_KEY>  (1) 
MCAHWIHFGHIESP-UHFFFAOYSA-N

>  <FORMULA>  (1) 
H2O3Se

>  <MOLECULAR_WEIGHT>  (1) 
128.97

>  <EXACT_MASS>  (1) 
129.916915758

>  <JCHEM_ACCEPTOR_COUNT>  (1) 
4

>  <JCHEM_ATOM_COUNT>  (1) 
6

>  <JCHEM_AVERAGE_NEUTRAL_MICROSPECIES_CHARGE>  (1) 
-1.7597453455116283

>  <JCHEM_AVERAGE_POLARIZABILITY>  (1) 
5.838760516259535

>  <JCHEM_BIOAVAILABILITY>  (1) 
1

>  <JCHEM_DONOR_COUNT>  (1) 
2

>  <JCHEM_FORMAL_CHARGE>  (1) 
0

>  <JCHEM_GHOSE_FILTER>  (1) 
0

>  <JCHEM_IUPAC>  (1) 
selenous acid

>  <JCHEM_LOGP>  (1) 
-1.2765

>  <JCHEM_MDDR_LIKE_RULE>  (1) 
0

>  <JCHEM_NEUTRAL_CHARGE>  (1) 
-2

>  <JCHEM_NUMBER_OF_RINGS>  (1) 
0

>  <JCHEM_PHYSIOLOGICAL_CHARGE>  (1) 
-2

>  <JCHEM_PKA>  (1) 
6.80102999566398

>  <JCHEM_PKA_STRONGEST_ACIDIC>  (1) 
1.1989700043360185

>  <JCHEM_POLAR_SURFACE_AREA>  (1) 
57.53

>  <JCHEM_REFRACTIVITY>  (1) 
19.687

>  <JCHEM_ROTATABLE_BOND_COUNT>  (1) 
0

>  <JCHEM_RULE_OF_FIVE>  (1) 
1

>  <JCHEM_TRADITIONAL_IUPAC>  (1) 
tetrahydrofolic acid

>  <JCHEM_VEBER_RULE>  (1) 
0

>  <DRUGBANK_ID>  (1) 
DB11127

>  <DRUG_GROUPS>  (1) 
approved

>  <GENERIC_NAME>  (1) 
Selenious acid

>  <SYNONYMS>  (1) 
selenige Säure; Selenious acid; Selenous acid

>  <PRODUCTS>  (1) 
Addamel N; Addnutriv; Alkadrenergy Tablets; Avengers Vitamin and Mineral Supplement; C. Vit-min Formula; Children's Chewable Tab; Formula F L W; Formula-SE; Golf Vitamin and Mineral Supplement; I-care Multivitamin and Multimineral Tablets; M.T.E.-6 Concentrated; Men's Multi Master Formula; Micro Plus 5 Concentrate; Micro Plus 6 (concentrate); Micro Plus 6 (pediatric); Micro Plus 6 (regular); Micro Se; Micro+ Te Pediatric; Milltrium Senior Vitamin and Mineral Supplement; Multitrace-5; Multivitamins and Minerals Tablets; Multrys; Neutral C + Coenzyme Q10 Plus Vitamins & Minerals; Nutra Boost; Nutrilite Double X; One Per Day Vitamin and Mineral Dietary Supplement; Onyx; Organic Minerals Tablet; Peditrace; Prenatal Vitamins and Minerals Tablets; Prolynium Vitamin and Mineral Supplement; Q.T. Vitamin and Mineral Drink Mix; Right Choice P.M. Multi Formula - Caplet; Selenious Acid Injection, USP; Selenium; Selenium Supplement; Selepen; Selepen Inj 40mcg/ml USP; Spectrum Performa Multivitamins and Minerals Tablets; Super 7 Vitamin and Mineral Supplement; Super-cell; Tianshi Vital Powder I; Tianshi Vital Powder II; Tralement; Tricare Prenatal 2-part Daily Prenatal Vitamin System; Tricare Prenatal Quick Dissolve; V-V Dietary Supplement; Vc II; Vege 1 Daily Tab; Vitamins C Plus E W.beta Carotene and Se; Vyo Cylate - Pwr; Women's Formula; antistressSAN

>  <SALTS>  (1) 
Sodium selenite; Sodium selenite pentahydrate

$$$$
