
     RDKit          2D

  9  8  0  0  1  0  0  0  0  0999 V2000
    0.5230    1.1270    0.0000 C   0  0  0  0  0  0  0  0  0  0  0  0
    1.2375    0.7145    0.0000 C   0  0  0  0  0  0  0  0  0  0  0  0
    1.9520    1.1270    0.0000 C   0  0  0  0  0  0  0  0  0  0  0  0
    2.6664    0.7145    0.0000 C   0  0  0  0  0  0  0  0  0  0  0  0
    3.3809    1.1270    0.0000 O   0  0  0  0  0  0  0  0  0  0  0  0
    2.6664   -0.1105    0.0000 O   0  0  0  0  0  0  0  0  0  0  0  0
    1.9520    1.9520    0.0000 O   0  0  0  0  0  0  0  0  0  0  0  0
    1.2375   -0.1105    0.0000 O   0  0  0  0  0  0  0  0  0  0  0  0
   -0.1914    0.7145    0.0000 O   0  0  0  0  0  0  0  0  0  0  0  0
  1  2  1  0
  2  3  1  0
  3  4  1  0
  4  5  2  0
  4  6  1  0
  3  7  1  1
  2  8  1  1
  1  9  1  0
M  END
>  <DATABASE_ID>  (1) 
DB11192

>  <DATABASE_NAME>  (1) 
drugbank

>  <SMILES>  (1) 
OC[C@H](O)[C@@H](O)C(O)=O

>  <INCHI_IDENTIFIER>  (1) 
InChI=1S/C4H8O5/c5-1-2(6)3(7)4(8)9/h2-3,5-7H,1H2,(H,8,9)/t2-,3+/m0/s1

>  <INCHI_KEY>  (1) 
JPIJQSOTBSSVTP-STHAYSLISA-N

>  <FORMULA>  (1) 
C4H8O5

>  <MOLECULAR_WEIGHT>  (1) 
136.1033

>  <EXACT_MASS>  (1) 
136.037173366

>  <JCHEM_ACCEPTOR_COUNT>  (1) 
5

>  <JCHEM_ATOM_COUNT>  (1) 
17

>  <JCHEM_AVERAGE_POLARIZABILITY>  (1) 
11.609117870375558

>  <JCHEM_BIOAVAILABILITY>  (1) 
1

>  <JCHEM_DONOR_COUNT>  (1) 
4

>  <JCHEM_FORMAL_CHARGE>  (1) 
0

>  <JCHEM_GHOSE_FILTER>  (1) 
0

>  <JCHEM_IUPAC>  (1) 
(2R,3S)-2,3,4-trihydroxybutanoic acid

>  <ALOGPS_LOGP>  (1) 
-2.11

>  <JCHEM_LOGP>  (1) 
-2.149074426666667

>  <ALOGPS_LOGS>  (1) 
0.55

>  <JCHEM_MDDR_LIKE_RULE>  (1) 
0

>  <JCHEM_NUMBER_OF_RINGS>  (1) 
0

>  <JCHEM_PHYSIOLOGICAL_CHARGE>  (1) 
-1

>  <JCHEM_PKA>  (1) 
13.025178139889814

>  <JCHEM_PKA_STRONGEST_ACIDIC>  (1) 
3.4007287139451505

>  <JCHEM_PKA_STRONGEST_BASIC>  (1) 
-2.981778620620938

>  <JCHEM_POLAR_SURFACE_AREA>  (1) 
97.99

>  <JCHEM_REFRACTIVITY>  (1) 
26.345999999999997

>  <JCHEM_ROTATABLE_BOND_COUNT>  (1) 
3

>  <JCHEM_RULE_OF_FIVE>  (1) 
1

>  <ALOGPS_SOLUBILITY>  (1) 
4.88e+02 g/l

>  <JCHEM_TRADITIONAL_IUPAC>  (1) 
threonate

>  <JCHEM_VEBER_RULE>  (1) 
0

>  <DRUGBANK_ID>  (1) 
DB11192

>  <DRUG_GROUPS>  (1) 
approved; investigational

>  <GENERIC_NAME>  (1) 
L-threonic acid

>  <SYNONYMS>  (1) 
(2R,3S)-2,3,4-trihydroxy-butanoic acid; L-threonate; L-threonic acid; Threonate

>  <PRODUCTS>  (1) 
EnBrace HR; EnLyte; Enl; PaxLyte; Puralor

>  <SALTS>  (1) 
Magnesium L-threonate

$$$$
