
     RDKit          2D

 10  9  0  0  0  0  0  0  0  0999 V2000
    0.3546    0.2066    0.0000 C   0  0  0  0  0  0  0  0  0  0  0  0
   -0.3545   -0.2065    0.0000 C   0  0  0  0  0  0  0  0  0  0  0  0
    1.0708   -0.2030    0.0000 C   0  0  0  0  0  0  0  0  0  0  0  0
    0.3546    1.0329    0.0000 S   0  0  0  0  0  0  0  0  0  0  0  0
   -1.0707    0.2031    0.0000 C   0  0  0  0  0  0  0  0  0  0  0  0
   -0.3545   -1.0329    0.0000 S   0  0  0  0  0  0  0  0  0  0  0  0
    1.7870    0.2100    0.0000 O   0  0  0  0  0  0  0  0  0  0  0  0
    1.0743   -1.0294    0.0000 O   0  0  0  0  0  0  0  0  0  0  0  0
   -1.7870   -0.2100    0.0000 O   0  0  0  0  0  0  0  0  0  0  0  0
   -1.0742    1.0294    0.0000 O   0  0  0  0  0  0  0  0  0  0  0  0
  1  2  1  0
  1  3  1  0
  1  4  1  1
  2  5  1  0
  2  6  1  6
  3  7  1  0
  3  8  2  0
  5  9  1  0
  5 10  2  0
M  END
>  <DATABASE_ID>  (1) 
DB00566

>  <DATABASE_NAME>  (1) 
drugbank

>  <SMILES>  (1) 
OC(=O)[C@@H](S)[C@@H](S)C(O)=O

>  <INCHI_IDENTIFIER>  (1) 
InChI=1S/C4H6O4S2/c5-3(6)1(9)2(10)4(7)8/h1-2,9-10H,(H,5,6)(H,7,8)/t1-,2+

>  <INCHI_KEY>  (1) 
ACTRVOBWPAIOHC-XIXRPRMCSA-N

>  <FORMULA>  (1) 
C4H6O4S2

>  <MOLECULAR_WEIGHT>  (1) 
182.21

>  <EXACT_MASS>  (1) 
181.970751021

>  <JCHEM_ACCEPTOR_COUNT>  (1) 
4

>  <JCHEM_ATOM_COUNT>  (1) 
16

>  <JCHEM_AVERAGE_POLARIZABILITY>  (1) 
15.453763080674037

>  <JCHEM_BIOAVAILABILITY>  (1) 
1

>  <JCHEM_DONOR_COUNT>  (1) 
4

>  <JCHEM_FORMAL_CHARGE>  (1) 
0

>  <JCHEM_GHOSE_FILTER>  (1) 
0

>  <JCHEM_IUPAC>  (1) 
(2R,3S)-2,3-disulfanylbutanedioic acid

>  <ALOGPS_LOGP>  (1) 
0.56

>  <JCHEM_LOGP>  (1) 
0.25882704599999995

>  <ALOGPS_LOGS>  (1) 
-1.87

>  <JCHEM_MDDR_LIKE_RULE>  (1) 
0

>  <JCHEM_NUMBER_OF_RINGS>  (1) 
0

>  <JCHEM_PHYSIOLOGICAL_CHARGE>  (1) 
-2

>  <JCHEM_PKA>  (1) 
5.44874638068228

>  <JCHEM_PKA_STRONGEST_ACIDIC>  (1) 
3.3712346491431497

>  <JCHEM_POLAR_SURFACE_AREA>  (1) 
74.6

>  <JCHEM_REFRACTIVITY>  (1) 
38.467400000000005

>  <JCHEM_ROTATABLE_BOND_COUNT>  (1) 
3

>  <JCHEM_RULE_OF_FIVE>  (1) 
1

>  <ALOGPS_SOLUBILITY>  (1) 
2.43e+00 g/l

>  <JCHEM_TRADITIONAL_IUPAC>  (1) 
succimer

>  <JCHEM_VEBER_RULE>  (1) 
0

>  <DRUGBANK_ID>  (1) 
DB00566

>  <SECONDARY_ACCESSION_NUMBERS>  (1) 
APRD01236

>  <DRUG_GROUPS>  (1) 
approved; investigational

>  <GENERIC_NAME>  (1) 
Succimer

>  <SYNONYMS>  (1) 
DIM-SA; DMS; DMS-A; DMSA; meso-2,3-Dimercaptobernsteinsäure; meso-2,3-dimercaptosuccinic acid; meso-dimercaptosuccinic acid; Succimer; succimero

>  <PRODUCTS>  (1) 
Chemet; NephroScan

$$$$
