
     RDKit          2D

 20 21  0  0  0  0  0  0  0  0999 V2000
   -3.2523   -2.0991    0.0000 C   0  0  0  0  0  0  0  0  0  0  0  0
   -2.6392   -1.5471    0.0000 N   0  0  0  0  0  0  0  0  0  0  0  0
   -2.0872   -2.1602    0.0000 C   0  0  0  0  0  0  0  0  0  0  0  0
   -3.1913   -0.9340    0.0000 C   0  0  0  0  0  0  0  0  0  0  0  0
   -2.0261   -0.9950    0.0000 C   0  0  0  0  0  0  0  0  0  0  0  0
   -1.2415   -1.2500    0.0000 C   0  0  0  0  0  0  0  0  0  0  0  0
   -0.6284   -0.6979    0.0000 N   0  0  0  0  0  0  0  0  0  0  0  0
   -1.2415   -0.1459    0.0000 C   0  0  0  0  0  0  0  0  0  0  0  0
   -0.1435   -1.3654    0.0000 C   0  0  0  0  0  0  0  0  0  0  0  0
    0.6411   -1.1104    0.0000 C   0  0  0  0  0  0  0  0  0  0  0  0
    0.6411   -0.2854    0.0000 C   0  0  0  0  0  0  0  0  0  0  0  0
   -0.1435   -0.0305    0.0000 C   0  0  0  0  0  0  0  0  0  0  0  0
    1.3556    0.1271    0.0000 C   0  0  0  0  0  0  0  0  0  0  0  0
    1.3556    0.9521    0.0000 Cl  0  0  0  0  0  0  0  0  0  0  0  0
    2.0701   -0.2854    0.0000 C   0  0  0  0  0  0  0  0  0  0  0  0
    2.7845    0.1271    0.0000 Cl  0  0  0  0  0  0  0  0  0  0  0  0
    2.0701   -1.1104    0.0000 C   0  0  0  0  0  0  0  0  0  0  0  0
    2.7845   -1.5229    0.0000 Cl  0  0  0  0  0  0  0  0  0  0  0  0
    1.3556   -1.5229    0.0000 C   0  0  0  0  0  0  0  0  0  0  0  0
    1.3556   -2.3479    0.0000 Cl  0  0  0  0  0  0  0  0  0  0  0  0
  1  2  1  0
  2  3  1  0
  2  4  1  0
  2  5  1  0
  5  6  1  0
  6  7  1  0
  7  8  1  0
  7  9  1  0
  9 10  1  0
 10 11  2  0
 11 12  1  0
  7 12  1  0
 11 13  1  0
 13 14  1  0
 13 15  2  0
 15 16  1  0
 15 17  1  0
 17 18  1  0
 17 19  2  0
 10 19  1  0
 19 20  1  0
M  CHG  2   2   1   7   1
M  END
>  <DATABASE_ID>  (1) 
DB19358

>  <DATABASE_NAME>  (1) 
drugbank

>  <SMILES>  (1) 
C[N+](C)(C)CC[N+]1(C)CC2=C(C1)C(Cl)=C(Cl)C(Cl)=C2Cl

>  <INCHI_IDENTIFIER>  (1) 
InChI=1S/C14H20Cl4N2/c1-19(2,3)5-6-20(4)7-9-10(8-20)12(16)14(18)13(17)11(9)15/h5-8H2,1-4H3/q+2

>  <INCHI_KEY>  (1) 
IXWDUZLHWJKVPX-UHFFFAOYSA-N

>  <FORMULA>  (1) 
C14H20Cl4N2

>  <MOLECULAR_WEIGHT>  (1) 
358.13

>  <EXACT_MASS>  (1) 
356.0369623

>  <DRUGBANK_ID>  (1) 
DB19358

>  <DRUG_GROUPS>  (1) 
approved

>  <GENERIC_NAME>  (1) 
Chlorisondamine

>  <SYNONYMS>  (1) 
1h-isoindolium, 4,5,6,7-tetrachloro-2,3-dihydro-2-methyl-2-(2- (trimethylammonio)ethyl)-; Chlorisondamine; Chlorisondamine cation; Chlorisondamine ion; Isoindolinium, 4,5,6,7-tetrachloro-2-methyl-2-(2- (trimethylammonio)ethyl)-

>  <SALTS>  (1) 
Chlorisondamine chloride; Chlorisondamine iodide

$$$$
