
     RDKit          2D

 40 41  0  0  0  0  0  0  0  0999 V2000
    1.0719    1.6456    0.0000 C   0  0  0  0  0  0  0  0  0  0  0  0
    1.7863    2.0581    0.0000 C   0  0  0  0  0  0  0  0  0  0  0  0
    0.3574    2.0581    0.0000 O   0  0  0  0  0  0  0  0  0  0  0  0
    1.0719    0.8206    0.0000 C   0  0  0  0  0  0  0  0  0  0  0  0
    2.5008    1.6456    0.0000 C   0  0  0  0  0  0  0  0  0  0  0  0
   -0.3570    1.6456    0.0000 C   0  0  0  0  0  0  0  0  0  0  0  0
    1.7863    0.4081    0.0000 C   0  0  0  0  0  0  0  0  0  0  0  0
    2.5008    0.8206    0.0000 C   0  0  0  0  0  0  0  0  0  0  0  0
    3.2153    2.0581    0.0000 N   0  0  0  0  0  0  0  0  0  0  0  0
   -0.3570    0.8206    0.0000 N   0  0  0  0  0  0  0  0  0  0  0  0
   -1.0715    2.0581    0.0000 O   0  0  0  0  0  0  0  0  0  0  0  0
   -1.0715    0.4081    0.0000 C   0  0  0  0  0  0  0  0  0  0  0  0
    0.3574    0.4081    0.0000 C   0  0  0  0  0  0  0  0  0  0  0  0
   -1.7860    0.8206    0.0000 C   0  0  0  0  0  0  0  0  0  0  0  0
   -2.5004    0.4081    0.0000 C   0  0  0  0  0  0  0  0  0  0  0  0
   -3.2149    0.8206    0.0000 C   0  0  0  0  0  0  0  0  0  0  0  0
   -3.9294    0.4081    0.0000 C   0  0  0  0  0  0  0  0  0  0  0  0
   -3.9294   -0.4168    0.0000 C   0  0  0  0  0  0  0  0  0  0  0  0
   -3.2149   -0.8293    0.0000 C   0  0  0  0  0  0  0  0  0  0  0  0
   -2.5004   -0.4168    0.0000 C   0  0  0  0  0  0  0  0  0  0  0  0
   -1.7860   -0.8293    0.0000 C   0  0  0  0  0  0  0  0  0  0  0  0
   -1.0715   -0.4168    0.0000 C   0  0  0  0  0  0  0  0  0  0  0  0
   -0.3570   -0.8293    0.0000 N   0  0  0  0  0  0  0  0  0  0  0  0
   -0.3570   -1.6543    0.0000 C   0  0  0  0  0  0  0  0  0  0  0  0
    0.3574   -0.4168    0.0000 C   0  0  0  0  0  0  0  0  0  0  0  0
    0.3574   -2.0668    0.0000 O   0  0  0  0  0  0  0  0  0  0  0  0
    1.0719   -1.6543    0.0000 C   0  0  0  0  0  0  0  0  0  0  0  0
    1.7863   -2.0668    0.0000 C   0  0  0  0  0  0  0  0  0  0  0  0
    1.0719   -0.8293    0.0000 C   0  0  0  0  0  0  0  0  0  0  0  0
    2.5008   -1.6543    0.0000 C   0  0  0  0  0  0  0  0  0  0  0  0
    1.7863   -0.4168    0.0000 C   0  0  0  0  0  0  0  0  0  0  0  0
    2.5008   -0.8293    0.0000 C   0  0  0  0  0  0  0  0  0  0  0  0
    3.2153   -2.0668    0.0000 N   0  0  0  0  0  0  0  0  0  0  0  0
   -1.0715   -2.0668    0.0000 O   0  0  0  0  0  0  0  0  0  0  0  0
    3.2137    2.8875    0.0000 C   0  0  0  0  0  0  0  0  0  0  0  0
    3.9294    1.6549    0.0000 C   0  0  0  0  0  0  0  0  0  0  0  0
    3.9294    2.4700    0.0000 C   0  0  0  0  0  0  0  0  0  0  0  0
    3.9294   -1.6549    0.0000 C   0  0  0  0  0  0  0  0  0  0  0  0
    3.2137   -2.8875    0.0000 C   0  0  0  0  0  0  0  0  0  0  0  0
    3.9294   -2.4700    0.0000 C   0  0  0  0  0  0  0  0  0  0  0  0
  1  2  2  0
  1  3  1  0
  1  4  1  0
  2  5  1  0
  3  6  1  0
  4  7  2  0
  5  8  2  0
  5  9  1  0
  6 10  1  0
  6 11  2  0
 10 12  1  0
 10 13  1  0
 12 14  1  0
 14 15  1  0
 15 16  1  0
 16 17  1  0
 17 18  1  0
 18 19  1  0
 19 20  1  0
 20 21  1  0
 21 22  1  0
 22 23  1  0
 23 24  1  0
 23 25  1  0
 24 26  1  0
 26 27  1  0
 27 28  2  0
 27 29  1  0
 28 30  1  0
 29 31  2  0
 30 32  2  0
 30 33  1  0
  7  8  1  0
 31 32  1  0
 24 34  2  0
  9 35  1  0
  9 36  1  0
  9 37  1  0
 33 38  1  0
 33 39  1  0
 33 40  1  0
M  CHG  2   9   1  33   1
M  END
>  <DATABASE_ID>  (1) 
DB00944

>  <DATABASE_NAME>  (1) 
drugbank

>  <SMILES>  (1) 
CN(CCCCCCCCCCN(C)C(=O)OC1=CC=CC(=C1)[N+](C)(C)C)C(=O)OC1=CC=CC(=C1)[N+](C)(C)C

>  <INCHI_IDENTIFIER>  (1) 
InChI=1S/C32H52N4O4/c1-33(31(37)39-29-21-17-19-27(25-29)35(3,4)5)23-15-13-11-9-10-12-14-16-24-34(2)32(38)40-30-22-18-20-28(26-30)36(6,7)8/h17-22,25-26H,9-16,23-24H2,1-8H3/q+2

>  <INCHI_KEY>  (1) 
RWZVPVOZTJJMNU-UHFFFAOYSA-N

>  <FORMULA>  (1) 
C32H52N4O4

>  <MOLECULAR_WEIGHT>  (1) 
556.7797

>  <EXACT_MASS>  (1) 
556.398856172

>  <JCHEM_ACCEPTOR_COUNT>  (1) 
2

>  <JCHEM_ATOM_COUNT>  (1) 
92

>  <JCHEM_AVERAGE_POLARIZABILITY>  (1) 
64.4086031005514

>  <JCHEM_BIOAVAILABILITY>  (1) 
0

>  <JCHEM_DONOR_COUNT>  (1) 
0

>  <JCHEM_FORMAL_CHARGE>  (1) 
2

>  <JCHEM_GHOSE_FILTER>  (1) 
0

>  <JCHEM_IUPAC>  (1) 
N,N,N-trimethyl-3-{[methyl({10-[methyl({[3-(trimethylazaniumyl)phenoxy]carbonyl})amino]decyl})carbamoyl]oxy}anilinium

>  <ALOGPS_LOGP>  (1) 
0.65

>  <JCHEM_LOGP>  (1) 
-1.4187553209434927

>  <ALOGPS_LOGS>  (1) 
-7.57

>  <JCHEM_MDDR_LIKE_RULE>  (1) 
0

>  <JCHEM_NUMBER_OF_RINGS>  (1) 
2

>  <JCHEM_PHYSIOLOGICAL_CHARGE>  (1) 
2

>  <JCHEM_POLAR_SURFACE_AREA>  (1) 
59.080000000000005

>  <JCHEM_REFRACTIVITY>  (1) 
185.7105999999998

>  <JCHEM_ROTATABLE_BOND_COUNT>  (1) 
17

>  <JCHEM_RULE_OF_FIVE>  (1) 
0

>  <ALOGPS_SOLUBILITY>  (1) 
1.69e-05 g/l

>  <JCHEM_TRADITIONAL_IUPAC>  (1) 
demecarium

>  <JCHEM_VEBER_RULE>  (1) 
0

>  <DRUGBANK_ID>  (1) 
DB00944

>  <SECONDARY_ACCESSION_NUMBERS>  (1) 
APRD00905

>  <DRUG_GROUPS>  (1) 
approved

>  <GENERIC_NAME>  (1) 
Demecarium

>  <SYNONYMS>  (1) 
Demecarium; Demecarium cation; Demecarium ion

>  <INTERNATIONAL_BRANDS>  (1) 
Humorsol; Tonilen; Tosmilen

>  <SALTS>  (1) 
Demecarium bromide

$$$$
