
     RDKit          2D

 10  9  0  0  0  0  0  0  0  0999 V2000
    0.8250   -0.8250    0.0000 C   0  0  0  0  0  0  0  0  0  0  0  0
    1.6500   -0.0000    0.0000 C   0  0  0  0  0  0  0  0  0  0  0  0
    0.8250    0.8250    0.0000 C   0  0  0  0  0  0  0  0  0  0  0  0
    1.5395    1.2375    0.0000 C   0  0  0  0  0  0  0  0  0  0  0  0
    0.8250    0.0000    0.0000 C   0  0  0  0  0  0  0  0  0  0  0  0
    0.1105    1.2375    0.0000 N   0  0  0  0  0  0  0  0  0  0  0  0
    1.5395    2.0625    0.0000 O   0  0  0  0  0  0  0  0  0  0  0  0
    2.2539    0.8250    0.0000 O   0  0  0  0  0  0  0  0  0  0  0  0
    0.0000    0.0000    0.0000 S   0  0  0  0  0  0  0  0  0  0  0  0
    1.5395    0.4125    0.0000 H   0  0  0  0  0  0  0  0  0  0  0  0
  4  3  1  0
  5  1  1  0
  5  2  1  0
  5  3  1  0
  3  6  1  0
  7  4  2  0
  8  4  1  0
  9  5  1  0
  3 10  1  6
M  END
>  <DATABASE_ID>  (1) 
DB00859

>  <DATABASE_NAME>  (1) 
drugbank

>  <SMILES>  (1) 
[H][C@](N)(C(O)=O)C(C)(C)S

>  <INCHI_IDENTIFIER>  (1) 
InChI=1S/C5H11NO2S/c1-5(2,9)3(6)4(7)8/h3,9H,6H2,1-2H3,(H,7,8)/t3-/m0/s1

>  <INCHI_KEY>  (1) 
VVNCNSJFMMFHPL-VKHMYHEASA-N

>  <FORMULA>  (1) 
C5H11NO2S

>  <MOLECULAR_WEIGHT>  (1) 
149.211

>  <EXACT_MASS>  (1) 
149.051049291

>  <JCHEM_ACCEPTOR_COUNT>  (1) 
3

>  <JCHEM_ATOM_COUNT>  (1) 
20

>  <JCHEM_AVERAGE_NEUTRAL_MICROSPECIES_CHARGE>  (1) 
-0.009381578340935004

>  <JCHEM_AVERAGE_POLARIZABILITY>  (1) 
14.761607659528455

>  <JCHEM_BIOAVAILABILITY>  (1) 
1

>  <JCHEM_DONOR_COUNT>  (1) 
3

>  <JCHEM_FORMAL_CHARGE>  (1) 
0

>  <JCHEM_GHOSE_FILTER>  (1) 
0

>  <JCHEM_IUPAC>  (1) 
(2S)-2-amino-3-methyl-3-sulfanylbutanoic acid

>  <ALOGPS_LOGP>  (1) 
-1.70

>  <JCHEM_LOGP>  (1) 
-2.146518265659755

>  <ALOGPS_LOGS>  (1) 
-1.51

>  <JCHEM_MDDR_LIKE_RULE>  (1) 
0

>  <JCHEM_NEUTRAL_CHARGE>  (1) 
0

>  <JCHEM_NUMBER_OF_RINGS>  (1) 
0

>  <JCHEM_PHYSIOLOGICAL_CHARGE>  (1) 
0

>  <JCHEM_PKA>  (1) 
10.076558230275829

>  <JCHEM_PKA_STRONGEST_ACIDIC>  (1) 
2.555552931139977

>  <JCHEM_PKA_STRONGEST_BASIC>  (1) 
9.093679244005854

>  <JCHEM_POLAR_SURFACE_AREA>  (1) 
63.32000000000001

>  <JCHEM_REFRACTIVITY>  (1) 
37.22500000000001

>  <JCHEM_ROTATABLE_BOND_COUNT>  (1) 
2

>  <JCHEM_RULE_OF_FIVE>  (1) 
1

>  <ALOGPS_SOLUBILITY>  (1) 
4.65e+00 g/l

>  <JCHEM_TRADITIONAL_IUPAC>  (1) 
biotin

>  <JCHEM_VEBER_RULE>  (1) 
0

>  <DRUGBANK_ID>  (1) 
DB00859

>  <SECONDARY_ACCESSION_NUMBERS>  (1) 
APRD01171

>  <DRUG_GROUPS>  (1) 
approved; investigational

>  <GENERIC_NAME>  (1) 
Penicillamine

>  <SYNONYMS>  (1) 
(−)-penicillamine; (S)-2-amino-3-mercapto-3-methylbutanoic acid; (S)-3,3-dimethylcysteine; 3-mercapto-D-valine; D-(−)-penicillamine; D-penicillamine; D-β,β-dimethylcysteine; penicilamina; Penicillamine

>  <PRODUCTS>  (1) 
Aagylur; Cuprimine; D-Penamine; Depen; Depen Tab 250mg; Penicillamine

>  <INTERNATIONAL_BRANDS>  (1) 
Atamir

$$$$
