
     RDKit          2D

  2  1  0  0  0  0  0  0  0  0999 V2000
   -0.4125   -0.0033    0.0000 Tl  0  0  0  0  0  1  0  0  0  0  0  0
    0.4125    0.0033    0.0000 Cl  0  0  0  0  0  0  0  0  0  0  0  0
  2  1  1  0
M  ISO  1   1 201
M  END
>  <DATABASE_ID>  (1) 
DB16624

>  <DATABASE_NAME>  (1) 
drugbank

>  <SMILES>  (1) 
Cl[201Tl]

>  <INCHI_IDENTIFIER>  (1) 
InChI=1S/ClH.Tl/h1H;/q;+1/p-1/i;1-3

>  <INCHI_KEY>  (1) 
GBECUEIQVRDUKB-RYDPDVNUSA-M

>  <FORMULA>  (1) 
ClTl

>  <MOLECULAR_WEIGHT>  (1) 
236.42

>  <EXACT_MASS>  (1) 
235.9396565

>  <JCHEM_ACCEPTOR_COUNT>  (1) 
0

>  <JCHEM_ATOM_COUNT>  (1) 
2

>  <JCHEM_AVERAGE_NEUTRAL_MICROSPECIES_CHARGE>  (1) 
0.0

>  <JCHEM_AVERAGE_POLARIZABILITY>  (1) 
4.346510788320492

>  <JCHEM_BIOAVAILABILITY>  (1) 
1

>  <JCHEM_DONOR_COUNT>  (1) 
0

>  <JCHEM_FORMAL_CHARGE>  (1) 
0

>  <JCHEM_GHOSE_FILTER>  (1) 
0

>  <JCHEM_IUPAC>  (1) 
chloro(201Tl)thallane

>  <JCHEM_LOGP>  (1) 
0.5345

>  <JCHEM_MDDR_LIKE_RULE>  (1) 
0

>  <JCHEM_NEUTRAL_CHARGE>  (1) 
0

>  <JCHEM_NUMBER_OF_RINGS>  (1) 
0

>  <JCHEM_PHYSIOLOGICAL_CHARGE>  (1) 
0

>  <JCHEM_POLAR_SURFACE_AREA>  (1) 
0.0

>  <JCHEM_REFRACTIVITY>  (1) 
6.1363

>  <JCHEM_ROTATABLE_BOND_COUNT>  (1) 
0

>  <JCHEM_RULE_OF_FIVE>  (1) 
1

>  <JCHEM_TRADITIONAL_IUPAC>  (1) 
N-demethyldiltiazem

>  <JCHEM_VEBER_RULE>  (1) 
1

>  <DRUGBANK_ID>  (1) 
DB16624

>  <DRUG_GROUPS>  (1) 
approved

>  <GENERIC_NAME>  (1) 
Thallous chloride Tl-201

>  <SYNONYMS>  (1) 
Thallium (201Tl) chloride; Thallous chloride Tl 201; Thallous chloride Tl-201

>  <PRODUCTS>  (1) 
THALLOUS CHLORIDE Tl 201; Thallous Chloride Tl 201

$$$$
