
     RDKit          2D

  9  8  0  0  0  0  0  0  0  0999 V2000
    0.8250    0.8250    0.0000 O   0  0  0  0  0  0  0  0  0  0  0  0
    0.8250   -0.8250    0.0000 O   0  0  0  0  0  0  0  0  0  0  0  0
    0.8250    0.0000    0.0000 Cr  0  0  0  0  0  6  0  0  0  0  0  0
    0.0000    0.0000    0.0000 O   0  0  0  0  0  0  0  0  0  0  0  0
   -0.8250    0.8250    0.0000 O   0  0  0  0  0  0  0  0  0  0  0  0
   -0.8250   -0.8250    0.0000 O   0  0  0  0  0  0  0  0  0  0  0  0
   -0.8250    0.0000    0.0000 Cr  0  0  0  0  0  6  0  0  0  0  0  0
    1.6500    0.0000    0.0000 O   0  0  0  0  0  0  0  0  0  0  0  0
   -1.6500    0.0000    0.0000 O   0  0  0  0  0  0  0  0  0  0  0  0
  3  1  2  0
  3  2  2  0
  3  8  1  0
  3  4  1  0
  7  4  1  0
  7  5  2  0
  7  6  2  0
  7  9  1  0
M  CHG  2   8  -1   9  -1
M  END
>  <DATABASE_ID>  (1) 
DB14182

>  <DATABASE_NAME>  (1) 
drugbank

>  <SMILES>  (1) 
[O-][Cr](=O)(=O)O[Cr]([O-])(=O)=O

>  <INCHI_IDENTIFIER>  (1) 
InChI=1S/2Cr.7O/q;;;;;;;2*-1

>  <INCHI_KEY>  (1) 
SOCTUWSJJQCPFX-UHFFFAOYSA-N

>  <FORMULA>  (1) 
Cr2O7

>  <MOLECULAR_WEIGHT>  (1) 
215.986

>  <EXACT_MASS>  (1) 
215.846511

>  <JCHEM_ACCEPTOR_COUNT>  (1) 
6

>  <JCHEM_ATOM_COUNT>  (1) 
9

>  <JCHEM_AVERAGE_POLARIZABILITY>  (1) 
11.055552769459645

>  <JCHEM_BIOAVAILABILITY>  (1) 
1

>  <JCHEM_DONOR_COUNT>  (1) 
0

>  <JCHEM_FORMAL_CHARGE>  (1) 
-2

>  <JCHEM_GHOSE_FILTER>  (1) 
0

>  <JCHEM_IUPAC>  (1) 
[(oxidodioxochromio)oxy]chromiumoylolate

>  <ALOGPS_LOGP>  (1) 
-0.56

>  <JCHEM_LOGP>  (1) 
-3.7067999999999994

>  <ALOGPS_LOGS>  (1) 
-1.73

>  <JCHEM_MDDR_LIKE_RULE>  (1) 
0

>  <JCHEM_NUMBER_OF_RINGS>  (1) 
0

>  <JCHEM_PHYSIOLOGICAL_CHARGE>  (1) 
-2

>  <JCHEM_PKA>  (1) 
-1.6989700043360187

>  <JCHEM_PKA_STRONGEST_ACIDIC>  (1) 
-2.3010299956639813

>  <JCHEM_POLAR_SURFACE_AREA>  (1) 
123.63000000000001

>  <JCHEM_REFRACTIVITY>  (1) 
10.0076

>  <JCHEM_ROTATABLE_BOND_COUNT>  (1) 
2

>  <JCHEM_RULE_OF_FIVE>  (1) 
1

>  <ALOGPS_SOLUBILITY>  (1) 
4.68e+00 g/l

>  <JCHEM_TRADITIONAL_IUPAC>  (1) 
chromate

>  <JCHEM_VEBER_RULE>  (1) 
0

>  <DRUGBANK_ID>  (1) 
DB14182

>  <DRUG_GROUPS>  (1) 
approved

>  <GENERIC_NAME>  (1) 
Dichromate

>  <SYNONYMS>  (1) 
Bichromate; Dichromat; Dichromate; Dichromate ion; dichromate ion(2−); dichromate(2−)

>  <PRODUCTS>  (1) 
T.R.U.E. Test Thin-Layer Rapid Use Patch Test

>  <SALTS>  (1) 
Potassium dichromate

$$$$
