
     RDKit          2D

 28 31  0  0  0  0  0  0  0  0999 V2000
   -0.8796   -0.9627    0.0000 C   0  0  0  0  0  0  0  0  0  0  0  0
   -0.8796   -0.1376    0.0000 C   0  0  0  0  0  0  0  0  0  0  0  0
   -0.1651    0.2748    0.0000 C   0  0  0  0  0  0  0  0  0  0  0  0
    0.5493   -0.1376    0.0000 C   0  0  0  0  0  0  0  0  0  0  0  0
    0.5493   -0.9627    0.0000 C   0  0  0  0  0  0  0  0  0  0  0  0
   -0.1651   -1.3752    0.0000 C   0  0  0  0  0  0  0  0  0  0  0  0
    1.3340    0.1172    0.0000 C   0  0  0  0  0  0  0  0  0  0  0  0
    1.8190   -0.5501    0.0000 N   0  0  0  0  0  0  0  0  0  0  0  0
    1.3340   -1.2177    0.0000 N   0  0  0  0  0  0  0  0  0  0  0  0
   -1.5940   -1.3752    0.0000 S   0  0  0  0  0  0  0  0  0  0  0  0
   -2.2986   -0.9684    0.0000 C   0  0  0  0  0  0  0  0  0  0  0  0
   -2.9985   -1.3724    0.0000 C   0  0  0  0  0  0  0  0  0  0  0  0
   -3.7129   -0.9598    0.0000 C   0  0  0  0  0  0  0  0  0  0  0  0
   -3.7127   -0.1348    0.0000 C   0  0  0  0  0  0  0  0  0  0  0  0
   -3.0132    0.2691    0.0000 C   0  0  0  0  0  0  0  0  0  0  0  0
   -2.2986   -0.1433    0.0000 C   0  0  0  0  0  0  0  0  0  0  0  0
   -2.9985   -2.2002    0.0000 C   0  0  0  0  0  0  0  0  0  0  0  0
   -3.7018   -2.6063    0.0000 N   0  0  0  0  0  0  0  0  0  0  0  0
   -2.2729   -2.6194    0.0000 O   0  0  0  0  0  0  0  0  0  0  0  0
    1.5890    0.9018    0.0000 C   0  0  0  0  0  0  0  0  0  0  0  0
    2.3960    1.0735    0.0000 C   0  0  0  0  0  0  0  0  0  0  0  0
    2.6510    1.8580    0.0000 C   0  0  0  0  0  0  0  0  0  0  0  0
    3.4580    2.0296    0.0000 N   0  0  0  0  0  0  0  0  0  0  0  0
    2.0987    2.4713    0.0000 C   0  0  0  0  0  0  0  0  0  0  0  0
    3.7129    2.8145    0.0000 C   0  0  0  0  0  0  0  0  0  0  0  0
    2.3538    3.2559    0.0000 C   0  0  0  0  0  0  0  0  0  0  0  0
    3.1607    3.4275    0.0000 C   0  0  0  0  0  0  0  0  0  0  0  0
   -3.7023   -3.4275    0.0000 C   0  0  0  0  0  0  0  0  0  0  0  0
  1  2  2  0
  2  3  1  0
  3  4  2  0
  4  5  1  0
  5  6  2  0
  1  6  1  0
  4  7  1  0
  7  8  2  0
  8  9  1  0
  5  9  1  0
  1 10  1  0
 10 11  1  0
 11 12  2  0
 12 13  1  0
 13 14  2  0
 14 15  1  0
 15 16  2  0
 11 16  1  0
 12 17  1  0
 17 18  1  0
 17 19  2  0
  7 20  1  0
 20 21  2  0
 23 22  2  0
 24 22  1  0
 25 23  1  0
 26 24  2  0
 27 25  2  0
 27 26  1  0
 21 22  1  0
 18 28  1  0
M  END
>  <DATABASE_ID>  (1) 
DB06626

>  <DATABASE_NAME>  (1) 
drugbank

>  <SMILES>  (1) 
CNC(=O)C1=C(SC2=CC=C3C(NN=C3\C=C\C3=CC=CC=N3)=C2)C=CC=C1

>  <INCHI_IDENTIFIER>  (1) 
InChI=1S/C22H18N4OS/c1-23-22(27)18-7-2-3-8-21(18)28-16-10-11-17-19(25-26-20(17)14-16)12-9-15-6-4-5-13-24-15/h2-14H,1H3,(H,23,27)(H,25,26)/b12-9+

>  <INCHI_KEY>  (1) 
RITAVMQDGBJQJZ-FMIVXFBMSA-N

>  <FORMULA>  (1) 
C22H18N4OS

>  <MOLECULAR_WEIGHT>  (1) 
386.47

>  <EXACT_MASS>  (1) 
386.120131908

>  <JCHEM_ACCEPTOR_COUNT>  (1) 
3

>  <JCHEM_ATOM_COUNT>  (1) 
46

>  <JCHEM_AVERAGE_POLARIZABILITY>  (1) 
42.581139444177964

>  <JCHEM_BIOAVAILABILITY>  (1) 
1

>  <JCHEM_DONOR_COUNT>  (1) 
2

>  <JCHEM_FORMAL_CHARGE>  (1) 
0

>  <JCHEM_GHOSE_FILTER>  (1) 
1

>  <JCHEM_IUPAC>  (1) 
N-methyl-2-({3-[(E)-2-(pyridin-2-yl)ethenyl]-1H-indazol-6-yl}sulfanyl)benzamide

>  <ALOGPS_LOGP>  (1) 
4.17

>  <JCHEM_LOGP>  (1) 
4.148864336333333

>  <ALOGPS_LOGS>  (1) 
-5.85

>  <JCHEM_MDDR_LIKE_RULE>  (1) 
0

>  <JCHEM_NUMBER_OF_RINGS>  (1) 
4

>  <JCHEM_PHYSIOLOGICAL_CHARGE>  (1) 
0

>  <JCHEM_PKA>  (1) 
14.232825934497587

>  <JCHEM_PKA_STRONGEST_ACIDIC>  (1) 
13.074693773903022

>  <JCHEM_PKA_STRONGEST_BASIC>  (1) 
4.592516178946188

>  <JCHEM_POLAR_SURFACE_AREA>  (1) 
70.67

>  <JCHEM_REFRACTIVITY>  (1) 
115.136

>  <JCHEM_ROTATABLE_BOND_COUNT>  (1) 
5

>  <JCHEM_RULE_OF_FIVE>  (1) 
1

>  <ALOGPS_SOLUBILITY>  (1) 
5.51e-04 g/l

>  <JCHEM_TRADITIONAL_IUPAC>  (1) 
axitinib

>  <JCHEM_VEBER_RULE>  (1) 
0

>  <DRUGBANK_ID>  (1) 
DB06626

>  <SECONDARY_ACCESSION_NUMBERS>  (1) 
DB23078

>  <DRUG_GROUPS>  (1) 
approved; investigational

>  <GENERIC_NAME>  (1) 
Axitinib

>  <SYNONYMS>  (1) 
AR-14034; Axitinib; Axitinibum; N-methyl-2-[[3-[(E)-2-pyridin-2-ylethenyl]-1H-indazol-6-yl]sulfanyl]benzamide

>  <PRODUCTS>  (1) 
Axitinib Accord; Inlyta

$$$$
