
     RDKit          2D

 17 18  0  0  0  0  0  0  0  0999 V2000
    4.5615   -4.9343    0.0000 C   0  0  0  0  0  0  0  0  0  0  0  0
    3.8470   -4.5218    0.0000 C   0  0  0  0  0  0  0  0  0  0  0  0
    5.2760   -3.6968    0.0000 C   0  0  0  0  0  0  0  0  0  0  0  0
    5.2760   -4.5218    0.0000 C   0  0  0  0  0  0  0  0  0  0  0  0
    4.5615   -3.2843    0.0000 C   0  0  0  0  0  0  0  0  0  0  0  0
    3.8470   -3.6968    0.0000 C   0  0  0  0  0  0  0  0  0  0  0  0
    6.0605   -4.7767    0.0000 N   0  0  0  0  0  0  0  0  0  0  0  0
    6.5454   -4.1093    0.0000 C   0  0  0  0  0  0  0  0  0  0  0  0
    7.1224   -2.4857    0.0000 C   0  0  0  0  0  0  0  0  0  0  0  0
    6.0605   -3.4419    0.0000 C   0  0  0  0  0  0  0  0  0  0  0  0
    6.3154   -2.6573    0.0000 C   0  0  0  0  0  0  0  0  0  0  0  0
    8.1843   -1.5297    0.0000 C   0  0  0  0  0  0  0  0  0  0  0  0
    7.3773   -1.7012    0.0000 N   0  0  0  0  0  0  0  0  0  0  0  0
    8.7363   -2.1427    0.0000 O   0  0  0  0  0  0  0  0  0  0  0  0
    8.4393   -0.7450    0.0000 C   0  0  0  0  0  0  0  0  0  0  0  0
    3.1326   -3.2843    0.0000 O   0  0  0  0  0  0  0  0  0  0  0  0
    2.4181   -3.6968    0.0000 C   0  0  0  0  0  0  0  0  0  0  0  0
  2  1  2  0
 10  3  1  0
  1  4  1  0
  4  3  2  0
  4  7  1  0
  5  3  1  0
  6  5  2  0
  2  6  1  0
 16  6  1  0
  8  7  1  0
 10  8  2  0
 13  9  1  0
  9 11  1  0
 11 10  1  0
 13 12  1  0
 14 12  2  0
 15 12  1  0
 16 17  1  0
M  END
>  <DATABASE_ID>  (1) 
DB01065

>  <DATABASE_NAME>  (1) 
drugbank

>  <SMILES>  (1) 
COC1=CC=C2NC=C(CCNC(C)=O)C2=C1

>  <INCHI_IDENTIFIER>  (1) 
InChI=1S/C13H16N2O2/c1-9(16)14-6-5-10-8-15-13-4-3-11(17-2)7-12(10)13/h3-4,7-8,15H,5-6H2,1-2H3,(H,14,16)

>  <INCHI_KEY>  (1) 
DRLFMBDRBRZALE-UHFFFAOYSA-N

>  <FORMULA>  (1) 
C13H16N2O2

>  <MOLECULAR_WEIGHT>  (1) 
232.2783

>  <EXACT_MASS>  (1) 
232.121177766

>  <JCHEM_ACCEPTOR_COUNT>  (1) 
2

>  <JCHEM_ATOM_COUNT>  (1) 
33

>  <JCHEM_AVERAGE_POLARIZABILITY>  (1) 
25.649878848425523

>  <JCHEM_BIOAVAILABILITY>  (1) 
1

>  <JCHEM_DONOR_COUNT>  (1) 
2

>  <JCHEM_FORMAL_CHARGE>  (1) 
0

>  <JCHEM_GHOSE_FILTER>  (1) 
1

>  <JCHEM_IUPAC>  (1) 
N-[2-(5-methoxy-1H-indol-3-yl)ethyl]acetamide

>  <ALOGPS_LOGP>  (1) 
1.42

>  <JCHEM_LOGP>  (1) 
1.1476127873333333

>  <ALOGPS_LOGS>  (1) 
-3.21

>  <JCHEM_MDDR_LIKE_RULE>  (1) 
0

>  <JCHEM_NUMBER_OF_RINGS>  (1) 
2

>  <JCHEM_PHYSIOLOGICAL_CHARGE>  (1) 
0

>  <JCHEM_PKA>  (1) 
16.59127620174317

>  <JCHEM_PKA_STRONGEST_ACIDIC>  (1) 
15.795496949109147

>  <JCHEM_PKA_STRONGEST_BASIC>  (1) 
-1.568617764839225

>  <JCHEM_POLAR_SURFACE_AREA>  (1) 
54.120000000000005

>  <JCHEM_REFRACTIVITY>  (1) 
66.2799

>  <JCHEM_ROTATABLE_BOND_COUNT>  (1) 
4

>  <JCHEM_RULE_OF_FIVE>  (1) 
1

>  <ALOGPS_SOLUBILITY>  (1) 
1.43e-01 g/l

>  <JCHEM_TRADITIONAL_IUPAC>  (1) 
melatonin

>  <JCHEM_VEBER_RULE>  (1) 
0

>  <DRUGBANK_ID>  (1) 
DB01065

>  <SECONDARY_ACCESSION_NUMBERS>  (1) 
APRD00742; DB08189

>  <DRUG_GROUPS>  (1) 
approved; investigational; nutraceutical; vet_approved

>  <GENERIC_NAME>  (1) 
Melatonin

>  <SYNONYMS>  (1) 
5-methoxy-N-acetyl tryptamine; 5-methoxy-N-acetyltryptamine; Melatonin; Melatonina; Mélatonine; N-[2-(5-methoxyindol-3-yl)ethyl]acetamide; N-Acetyl-5-methoxytryptamine

>  <PRODUCTS>  (1) 
Amerix Melatonin; Blackberry Melatonin Gummies; Circadin; Essential Oil; Hypnosom; MAX Sleep Junior Childrens SLEEP AID; Medi-doze Rx Sleep Aid; Medi-doze Sleep Aid; Melatol; Melatonin; Melatonin Neurim; Melatonin Rapid Release Gelcaps 10 mg; Melatonin Rapid Release Gelcaps 5 mg; Safrel Melatonin; Slenyto

>  <INTERNATIONAL_BRANDS>  (1) 
Mela-T; Melatol; Melatonin; Nature'S Harmony; Revital Melatonin; Rx Balance; Sleep Right; Vivitas

$$$$
