
     RDKit          2D

 14 14  0  0  0  0  0  0  0  0999 V2000
    2.8578    0.8250    0.0000 C   0  0  0  0  0  0  0  0  0  0  0  0
    2.1434   -0.4125    0.0000 C   0  0  0  0  0  0  0  0  0  0  0  0
    0.7144   -0.4125    0.0000 C   0  0  0  0  0  0  0  0  0  0  0  0
   -1.4289    0.8250    0.0000 C   0  0  0  0  0  0  0  0  0  0  0  0
   -0.7144   -0.4125    0.0000 C   0  0  0  0  0  0  0  0  0  0  0  0
   -2.1434    0.4125    0.0000 C   0  0  0  0  0  0  0  0  0  0  0  0
   -1.4289   -0.8250    0.0000 C   0  0  0  0  0  0  0  0  0  0  0  0
    0.0000    0.8250    0.0000 C   0  0  0  0  0  0  0  0  0  0  0  0
    2.1434    0.4125    0.0000 C   0  0  0  0  0  0  0  0  0  0  0  0
    0.7144    0.4125    0.0000 C   0  0  0  0  0  0  0  0  0  0  0  0
   -0.7144    0.4125    0.0000 C   0  0  0  0  0  0  0  0  0  0  0  0
   -2.1434   -0.4125    0.0000 C   0  0  0  0  0  0  0  0  0  0  0  0
   -2.8578   -0.8250    0.0000 I   0  0  0  0  0  0  0  0  0  0  0  0
    1.4289    0.8250    0.0000 N   0  0  0  0  0  0  0  0  0  0  0  0
  6  4  2  0
  7  5  1  0
  9  1  1  0
  9  2  1  0
 10  3  1  0
 10  8  1  0
 11  4  1  0
 11  5  2  0
 11  8  1  0
 12  6  1  0
 12  7  2  0
 13 12  1  0
 14  9  1  0
 14 10  1  0
M  ISO  1  13 123
M  END
>  <DATABASE_ID>  (1) 
DB09480

>  <DATABASE_NAME>  (1) 
drugbank

>  <SMILES>  (1) 
CC(C)NC(C)CC1=CC=C([123I])C=C1

>  <INCHI_IDENTIFIER>  (1) 
InChI=1S/C12H18IN/c1-9(2)14-10(3)8-11-4-6-12(13)7-5-11/h4-7,9-10,14H,8H2,1-3H3/i13-4

>  <INCHI_KEY>  (1) 
ISEHJSHTIVKELA-DCWJVSPSSA-N

>  <FORMULA>  (1) 
C12H18IN

>  <MOLECULAR_WEIGHT>  (1) 
299.189

>  <EXACT_MASS>  (1) 
299.049522528

>  <JCHEM_ACCEPTOR_COUNT>  (1) 
1

>  <JCHEM_ATOM_COUNT>  (1) 
32

>  <JCHEM_AVERAGE_POLARIZABILITY>  (1) 
27.782958716804075

>  <JCHEM_BIOAVAILABILITY>  (1) 
1

>  <JCHEM_DONOR_COUNT>  (1) 
1

>  <JCHEM_FORMAL_CHARGE>  (1) 
0

>  <JCHEM_GHOSE_FILTER>  (1) 
1

>  <JCHEM_IUPAC>  (1) 
{1-[4-(¹²³I)iodophenyl]propan-2-yl}(propan-2-yl)amine

>  <ALOGPS_LOGP>  (1) 
3.58

>  <JCHEM_LOGP>  (1) 
3.939158333

>  <ALOGPS_LOGS>  (1) 
-4.77

>  <JCHEM_MDDR_LIKE_RULE>  (1) 
0

>  <JCHEM_NUMBER_OF_RINGS>  (1) 
1

>  <JCHEM_PHYSIOLOGICAL_CHARGE>  (1) 
1

>  <JCHEM_PKA_STRONGEST_BASIC>  (1) 
10.34746209231381

>  <JCHEM_POLAR_SURFACE_AREA>  (1) 
12.03

>  <JCHEM_REFRACTIVITY>  (1) 
71.00970000000001

>  <JCHEM_ROTATABLE_BOND_COUNT>  (1) 
4

>  <JCHEM_RULE_OF_FIVE>  (1) 
1

>  <ALOGPS_SOLUBILITY>  (1) 
5.11e-03 g/l

>  <JCHEM_TRADITIONAL_IUPAC>  (1) 
{1-[4-(¹²³I)iodophenyl]propan-2-yl}(isopropyl)amine

>  <JCHEM_VEBER_RULE>  (1) 
1

>  <DRUGBANK_ID>  (1) 
DB09480

>  <DRUG_GROUPS>  (1) 
approved

>  <GENERIC_NAME>  (1) 
Iofetamine I-123

>  <SYNONYMS>  (1) 
Iodine iofetamine (123I); Iofetamine (123 I); Iofetamine (123I); Iofetamine I 123; Iofetamine I-123; Iofetamine, I-123

>  <SALTS>  (1) 
Iofetamine hydrochloride I-123

$$$$
