
     RDKit          2D

 36 39  0  0  0  0  0  0  0  0999 V2000
   -2.0367   -0.4741    0.0000 C   0  0  0  0  0  0  0  0  0  0  0  0
   -2.0367   -1.2991    0.0000 O   0  0  0  0  0  0  0  0  0  0  0  0
   -1.3222   -1.7116    0.0000 C   0  0  0  0  0  0  0  0  0  0  0  0
   -1.3222   -2.5366    0.0000 C   0  0  0  0  0  0  0  0  0  0  0  0
   -0.6548   -3.0215    0.0000 N   0  0  0  0  0  0  0  0  0  0  0  0
   -0.9097   -3.8062    0.0000 N   0  0  0  0  0  0  0  0  0  0  0  0
   -0.4248   -4.4736    0.0000 C   0  0  0  0  0  0  0  0  0  0  0  0
    0.3957   -4.3874    0.0000 C   0  0  0  0  0  0  0  0  0  0  0  0
    0.7312   -3.6337    0.0000 C   0  0  0  0  0  0  0  0  0  0  0  0
    1.5517   -3.5474    0.0000 C   0  0  0  0  0  0  0  0  0  0  0  0
    2.0366   -4.2149    0.0000 C   0  0  0  0  0  0  0  0  0  0  0  0
    2.8571   -4.1286    0.0000 C   0  0  0  0  0  0  0  0  0  0  0  0
    3.3420   -4.7961    0.0000 N   0  0  0  0  0  0  0  0  0  0  0  0
    4.1625   -4.7098    0.0000 C   0  0  0  0  0  0  0  0  0  0  0  0
    4.6474   -5.3773    0.0000 C   0  0  0  0  0  0  0  0  0  0  0  0
    4.3119   -6.1310    0.0000 C   0  0  0  0  0  0  0  0  0  0  0  0
    3.4914   -6.2172    0.0000 C   0  0  0  0  0  0  0  0  0  0  0  0
    3.0065   -5.5498    0.0000 C   0  0  0  0  0  0  0  0  0  0  0  0
    2.1860   -5.6360    0.0000 O   0  0  0  0  0  0  0  0  0  0  0  0
    1.7011   -4.9686    0.0000 C   0  0  0  0  0  0  0  0  0  0  0  0
    0.8806   -5.0548    0.0000 C   0  0  0  0  0  0  0  0  0  0  0  0
   -1.7347   -3.8062    0.0000 C   0  0  0  0  0  0  0  0  0  0  0  0
   -1.9897   -3.0215    0.0000 C   0  0  0  0  0  0  0  0  0  0  0  0
   -2.7743   -2.7666    0.0000 C   0  0  0  0  0  0  0  0  0  0  0  0
   -2.9458   -1.9596    0.0000 O   0  0  0  0  0  0  0  0  0  0  0  0
   -3.3874   -3.3186    0.0000 N   0  0  0  0  0  0  0  0  0  0  0  0
   -4.1720   -3.0637    0.0000 C   0  0  0  0  0  0  0  0  0  0  0  0
   -4.7851   -3.6157    0.0000 C   0  0  0  0  0  0  0  0  0  0  0  0
   -4.6136   -4.4227    0.0000 N   0  0  0  0  0  0  0  0  0  0  0  0
   -5.2267   -4.9747    0.0000 C   0  0  0  0  0  0  0  0  0  0  0  0
   -6.0113   -4.7198    0.0000 C   0  0  0  0  0  0  0  0  0  0  0  0
   -6.1828   -3.9128    0.0000 C   0  0  0  0  0  0  0  0  0  0  0  0
   -6.9674   -3.6579    0.0000 O   0  0  0  0  0  0  0  0  0  0  0  0
   -7.5805   -4.2099    0.0000 C   0  0  0  0  0  0  0  0  0  0  0  0
   -5.5697   -3.3608    0.0000 C   0  0  0  0  0  0  0  0  0  0  0  0
   -5.7413   -2.5538    0.0000 F   0  0  0  0  0  0  0  0  0  0  0  0
  1  2  1  0
  2  3  1  0
  3  4  1  0
  4  5  2  0
  5  6  1  0
  6  7  1  0
  7  8  1  0
  8  9  2  0
  9 10  1  0
 10 11  2  0
 11 12  1  0
 12 13  1  0
 13 14  1  0
 14 15  2  0
 15 16  1  0
 16 17  2  0
 17 18  1  0
 13 18  1  0
 18 19  2  0
 11 20  1  0
 20 21  2  0
  8 21  1  0
  6 22  1  0
 22 23  2  0
  4 23  1  0
 23 24  1  0
 24 25  2  0
 24 26  1  0
 26 27  1  0
 27 28  1  0
 28 29  2  0
 29 30  1  0
 30 31  2  0
 31 32  1  0
 32 33  1  0
 33 34  1  0
 32 35  2  0
 28 35  1  0
 35 36  1  0
M  END
>  <DATABASE_ID>  (1) 
DB18305

>  <DATABASE_NAME>  (1) 
drugbank

>  <SMILES>  (1) 
COCC1=NN(CC2=CC=C(CN3C=CC=CC3=O)C=C2)C=C1C(=O)NCC1=NC=CC(OC)=C1F

>  <INCHI_IDENTIFIER>  (1) 
InChI=1S/C26H26FN5O4/c1-35-17-22-20(26(34)29-13-21-25(27)23(36-2)10-11-28-21)16-32(30-22)15-19-8-6-18(7-9-19)14-31-12-4-3-5-24(31)33/h3-12,16H,13-15,17H2,1-2H3,(H,29,34)

>  <INCHI_KEY>  (1) 
KGMPDQIYDKKXRD-UHFFFAOYSA-N

>  <FORMULA>  (1) 
C26H26FN5O4

>  <MOLECULAR_WEIGHT>  (1) 
491.523

>  <EXACT_MASS>  (1) 
491.1968825

>  <JCHEM_ACCEPTOR_COUNT>  (1) 
6

>  <JCHEM_ATOM_COUNT>  (1) 
62

>  <JCHEM_AVERAGE_NEUTRAL_MICROSPECIES_CHARGE>  (1) 
2.5670645720761507

>  <JCHEM_AVERAGE_POLARIZABILITY>  (1) 
50.51629402226417

>  <JCHEM_BIOAVAILABILITY>  (1) 
1

>  <JCHEM_DONOR_COUNT>  (1) 
1

>  <JCHEM_FORMAL_CHARGE>  (1) 
0

>  <JCHEM_GHOSE_FILTER>  (1) 
0

>  <JCHEM_IUPAC>  (1) 
N-[(3-fluoro-4-methoxypyridin-2-yl)methyl]-3-(methoxymethyl)-1-({4-[(2-oxo-1,2-dihydropyridin-1-yl)methyl]phenyl}methyl)-1H-pyrazole-4-carboxamide

>  <JCHEM_LOGP>  (1) 
1.7222124973333328

>  <JCHEM_MDDR_LIKE_RULE>  (1) 
1

>  <JCHEM_NEUTRAL_CHARGE>  (1) 
0

>  <JCHEM_NUMBER_OF_RINGS>  (1) 
4

>  <JCHEM_PHYSIOLOGICAL_CHARGE>  (1) 
0

>  <JCHEM_PKA_STRONGEST_ACIDIC>  (1) 
12.914799444524274

>  <JCHEM_PKA_STRONGEST_BASIC>  (1) 
3.3073419353547537

>  <JCHEM_POLAR_SURFACE_AREA>  (1) 
98.58000000000001

>  <JCHEM_REFRACTIVITY>  (1) 
144.70369999999994

>  <JCHEM_ROTATABLE_BOND_COUNT>  (1) 
10

>  <JCHEM_RULE_OF_FIVE>  (1) 
1

>  <JCHEM_TRADITIONAL_IUPAC>  (1) 
N-[(3-fluoro-4-methoxypyridin-2-yl)methyl]-3-(methoxymethyl)-1-({4-[(2-oxopyridin-1-yl)methyl]phenyl}methyl)pyrazole-4-carboxamide

>  <JCHEM_VEBER_RULE>  (1) 
0

>  <DRUGBANK_ID>  (1) 
DB18305

>  <DRUG_GROUPS>  (1) 
approved; investigational

>  <GENERIC_NAME>  (1) 
Sebetralstat

>  <SYNONYMS>  (1) 
1H-Pyrazole-4-carboxamide, N-[(3-fluoro-4-methoxy-2-pyridinyl)methyl]-3-methoxymethyl)-1-[[4-[(2-oxo-1(2H)-pyridinyl)methyl]phenyl]methyl]-; N-[(3-fluoro-4-methoxypyridin-2-yl) methyl]-3-(methoxymethyl)-1-({4-[(2-oxo-1,2-dihydropyridin-1-yl) methyl]phenyl}methyl)-1H-pyrazole-4-carboxamide; N-[(3-fluoro-4-methoxypyridin-2-yl)methyl]-3-(methoxymethyl)-1-({4-[(2-oxopyridin-1(2H)-yl)methyl]phenyl}methyl)-1H-pyrazol-4-carboxamide; Sebetralstat

>  <PRODUCTS>  (1) 
Ekterly

$$$$
