
     RDKit          2D

 35 32  0  0  1  0  0  0  0  0999 V2000
   -2.0640    0.2292    0.0000 C   0  0  0  0  0  0  0  0  0  0  0  0
   -1.3496   -0.1833    0.0000 C   0  0  0  0  0  0  0  0  0  0  0  0
   -0.6351    0.2292    0.0000 C   0  0  0  0  0  0  0  0  0  0  0  0
    0.0794   -0.1833    0.0000 C   0  0  0  0  0  0  0  0  0  0  0  0
    0.7939    0.2292    0.0000 C   0  0  0  0  0  0  0  0  0  0  0  0
    1.5083   -0.1833    0.0000 C   0  0  0  0  0  0  0  0  0  0  0  0
   -2.7785   -0.1833    0.0000 O   0  0  0  0  0  0  0  0  0  0  0  0
   -1.3496   -1.0083    0.0000 O   0  0  0  0  0  0  0  0  0  0  0  0
   -0.6351    1.0542    0.0000 O   0  0  0  0  0  0  0  0  0  0  0  0
    0.0794   -1.0083    0.0000 O   0  0  0  0  0  0  0  0  0  0  0  0
    0.7939    1.0542    0.0000 O   0  0  0  0  0  0  0  0  0  0  0  0
    1.5083   -1.0083    0.0000 O   0  0  0  0  0  0  0  0  0  0  0  0
    2.2228    0.2292    0.0000 O   0  0  0  0  0  0  0  0  0  0  0  0
    5.5375    0.2669    0.0000 C   0  0  0  0  0  0  0  0  0  0  0  0
    6.2519   -0.1456    0.0000 C   0  0  0  0  0  0  0  0  0  0  0  0
    6.9664    0.2669    0.0000 C   0  0  0  0  0  0  0  0  0  0  0  0
    7.6809   -0.1456    0.0000 C   0  0  0  0  0  0  0  0  0  0  0  0
    8.3953    0.2669    0.0000 C   0  0  0  0  0  0  0  0  0  0  0  0
    9.1098   -0.1456    0.0000 C   0  0  0  0  0  0  0  0  0  0  0  0
    4.8230   -0.1456    0.0000 O   0  0  0  0  0  0  0  0  0  0  0  0
    6.2519   -0.9706    0.0000 O   0  0  0  0  0  0  0  0  0  0  0  0
    6.9664    1.0919    0.0000 O   0  0  0  0  0  0  0  0  0  0  0  0
    7.6809   -0.9706    0.0000 O   0  0  0  0  0  0  0  0  0  0  0  0
    8.3953    1.0919    0.0000 O   0  0  0  0  0  0  0  0  0  0  0  0
    9.8243    0.2669    0.0000 O   0  0  0  0  0  0  0  0  0  0  0  0
    9.1098   -0.9706    0.0000 O   0  0  0  0  0  0  0  0  0  0  0  0
    2.9373    0.6417    0.0000 Zn  0  0  0  0  0 15  0  0  0  0  0  0
   -1.3496    0.6417    0.0000 H   0  0  0  0  0  0  0  0  0  0  0  0
   -0.6351   -0.5958    0.0000 H   0  0  0  0  0  0  0  0  0  0  0  0
    0.0794    0.6417    0.0000 H   0  0  0  0  0  0  0  0  0  0  0  0
    0.7939   -0.5958    0.0000 H   0  0  0  0  0  0  0  0  0  0  0  0
    6.2519    0.6794    0.0000 H   0  0  0  0  0  0  0  0  0  0  0  0
    6.9664   -0.5581    0.0000 H   0  0  0  0  0  0  0  0  0  0  0  0
    7.6809    0.6794    0.0000 H   0  0  0  0  0  0  0  0  0  0  0  0
    8.3953   -0.5581    0.0000 H   0  0  0  0  0  0  0  0  0  0  0  0
  2  1  1  0
  3  2  1  0
  4  3  1  0
  5  4  1  0
  6  5  1  0
  7  1  1  0
  2  8  1  0
  3  9  1  0
  4 10  1  0
  5 11  1  0
 12  6  2  0
 13  6  1  0
 15 14  1  0
 16 15  1  0
 17 16  1  0
 18 17  1  0
 19 18  1  0
 20 14  1  0
 15 21  1  0
 16 22  1  0
 17 23  1  0
 18 24  1  0
 25 19  2  0
 26 19  1  0
  2 28  1  1
  3 29  1  6
  4 30  1  6
  5 31  1  6
 15 32  1  1
 16 33  1  6
 17 34  1  6
 18 35  1  6
M  CHG  3  13  -1  26  -1  27   2
M  END
>  <DATABASE_ID>  (1) 
DB11248

>  <DATABASE_NAME>  (1) 
drugbank

>  <SMILES>  (1) 
[Zn++].[H][C@@](O)(CO)[C@@]([H])(O)[C@]([H])(O)[C@@]([H])(O)C([O-])=O.[H][C@@](O)(CO)[C@@]([H])(O)[C@]([H])(O)[C@@]([H])(O)C([O-])=O

>  <INCHI_IDENTIFIER>  (1) 
InChI=1S/2C6H12O7.Zn/c2*7-1-2(8)3(9)4(10)5(11)6(12)13;/h2*2-5,7-11H,1H2,(H,12,13);/q;;+2/p-2/t2*2-,3-,4+,5-;/m11./s1

>  <INCHI_KEY>  (1) 
WHMDKBIGKVEYHS-IYEMJOQQSA-L

>  <FORMULA>  (1) 
C12H22O14Zn

>  <MOLECULAR_WEIGHT>  (1) 
455.67

>  <EXACT_MASS>  (1) 
454.030097

>  <JCHEM_ACCEPTOR_COUNT>  (1) 
7

>  <JCHEM_ATOM_COUNT>  (1) 
49

>  <JCHEM_AVERAGE_POLARIZABILITY>  (1) 
16.622220252937513

>  <JCHEM_BIOAVAILABILITY>  (1) 
1

>  <JCHEM_DONOR_COUNT>  (1) 
5

>  <JCHEM_FORMAL_CHARGE>  (1) 
0

>  <JCHEM_GHOSE_FILTER>  (1) 
0

>  <JCHEM_IUPAC>  (1) 
zinc(2+) ion bis((2R,3S,4R,5R)-2,3,4,5,6-pentahydroxyhexanoate)

>  <ALOGPS_LOGP>  (1) 
-1.95

>  <JCHEM_LOGP>  (1) 
-3.4097443106666665

>  <ALOGPS_LOGS>  (1) 
-1.06

>  <JCHEM_MDDR_LIKE_RULE>  (1) 
0

>  <JCHEM_NUMBER_OF_RINGS>  (1) 
0

>  <JCHEM_PHYSIOLOGICAL_CHARGE>  (1) 
-1

>  <JCHEM_PKA>  (1) 
12.593710458724516

>  <JCHEM_PKA_STRONGEST_ACIDIC>  (1) 
3.3882055743218547

>  <JCHEM_PKA_STRONGEST_BASIC>  (1) 
-2.974220927705365

>  <JCHEM_POLAR_SURFACE_AREA>  (1) 
141.28

>  <JCHEM_REFRACTIVITY>  (1) 
49.10809999999999

>  <JCHEM_ROTATABLE_BOND_COUNT>  (1) 
10

>  <JCHEM_RULE_OF_FIVE>  (1) 
1

>  <ALOGPS_SOLUBILITY>  (1) 
4.00e+01 g/l

>  <JCHEM_TRADITIONAL_IUPAC>  (1) 
zinc(2+) ion bis(D-gluconate)

>  <JCHEM_VEBER_RULE>  (1) 
0

>  <DRUGBANK_ID>  (1) 
DB11248

>  <DRUG_GROUPS>  (1) 
approved; investigational; vet_approved

>  <GENERIC_NAME>  (1) 
Zinc gluconate

>  <SYNONYMS>  (1) 
Zinc gluconate

>  <PRODUCTS>  (1) 
A+ Zinc Tab; Adeks Tablets; Adrenergy Tablets; Ampitrexyl; Ampitrexyl Plus; Avengers Vitamin and Mineral Supplement; Big Richard; Black Spider - Libi Sting; Blue Monster Male Sexual Enhancer; Blue Scorpion; C 106 Tab; Cal-mag Vitamin C and Zinc Tab; Calcium - Magnesium - Zinc Tab; Calcium Magnesium Avec Vitamine D Et Zinc; Chelated Mega Zinc Tab 75mg; Chelated Zinc Tab 25mg; Chelated Zinc Tab 50mg; Chewable Zinc Wafers 10mg; Children's Chew Multi & Min Tab; Chromease Tab; Citrate De Calcium Plus Vitamine D Et Zinc; Dayavite; Dermamed Nutrition for troubled skin; Dr. AVi MULTIVITAMIN with Zinc, Real Ginger, Lemon and Lemongrass; Dr. AVi VITAMIN C 1000 mg with Zinc, Real Ginger, Honey, Lemon and Lemongrass; E.V.C. Vitamins Tab; Evc - Liq; Evc Liquid Vitamins A,c,b6 With Beta Caro&zn; Extra 11; Fisherman's Friend Zinc Lozenges; Floriva; Formula Imgrd - Tab; Formula O; Golf Vitamin and Mineral Supplement; Great Day/am Formula Tab; Gtf-vitamin-minerals & Pancreatin Tab; Herbon Zinc Lozenges; Horny Rhino 66000; Horny Rhino 69000; Imedeen; Kama Caze Syrup; Kc Vitamin and Mineral Supplement; Libi Xplode Male Sexual Enhancer; Lipall Plus Tab; Mega Rhino 82000; Men's Multi Master Formula; Menocal Tab; Multi Pro; Multi Vitamin-mineral Formula; Multi-force for Adults Tab; Multi-force for Women Tab; Multivitamin and Mineral; Munit-E Tablet; Nicadan; Nicadan ZX; Nutra Zinc; One A Day With Non-medicinal Echinacea; Organic Minerals Tablet; Osteo Formula; Pegasus - Fire Desire; Pegasus 21000; Pegasus Male Sexual Enhancer; Pro Enz Tab; Pros-gard Zinc and Vitamin B6 - Capsule; Prosgard; Prostana Cap 2.5mg; Provida DHA; PureVita Adult; Rhino Afrodita; Rhino Double Horn; Rhino Double Horn Libi Xx; Rhino Love 97000; Rhino Time 78000; Rhino Time 94000; S.H. Drink Mix; Samson; Sexy Matador 17000; Sincera - Tablets; Spectra 301 Vitamin and Mineral Supp; Spectralsine Tab 10mg; Super Daily No 2; Swiss One Timed Release Tab; Tendera-OB; Thank you for Last Night; The Bee; Thymunase Tab; Viprot; Vit-HA Multi Vitamin and Zinc Supplement; Vita Vim With Beta Carotene-caplet; Vita-vim With Beta-carotene - Tab; Vitamin C + Zinc Tab; Vitaminol; Vitamune; Women's Formula; ZINC INJECTABLE A 1mg/ml, solution injectable pour perfusion; Zebra Fantasy Ride; Zigg-eeze; Zinc (gluconate) 10 Mg Tablets; Zinc 10mg; Zinc 25mg Tab; Zinc 50 Caplet; Zinc 50 Mg - Tab; Zinc 50mg; Zinc 50mg Tab; Zinc 50mg W Vitamin C; Zinc Caps 50mg; Zinc Chelated 50mg Tab; Zinc Complex 30mg Tab; Zinc Dietary Supplement; Zinc Gluconate 380mg; Zinc Gluconate Tab 10mg; Zinc Gluconate Tab 50mg; Zinc Lozenge 9.9mg; Zinc Lozenge With Vitamin C; Zinc Lozenges; Zinc Lozenges With Vitamin C; Zinc Plus Vitamins C & B6 Lozenges; Zinc Supplement Tab 20mg; Zinc Tab 10mg; Zinc Tab 20mg; Zinc Tab 50mg; Zinc Tablets 50mg; Zinc and Algin Tab Nu Life; Zinc-C Lozenges; Zinc-C-lozenges; Zymain Tab; Zyvana; antistressSAN; arthronSAN

>  <SALTS>  (1) 
Zinc gluconate trihydrate

$$$$
