
     RDKit          2D

  1  0  0  0  0  0  0  0  0  0999 V2000
    0.0000    0.0000    0.0000 F   0  0  0  0  0  0  0  0  0  0  0  0
M  END
>  <DATABASE_ID>  (1) 
DB11072

>  <DATABASE_NAME>  (1) 
drugbank

>  <SMILES>  (1) 
F

>  <INCHI_IDENTIFIER>  (1) 
InChI=1S/FH/h1H

>  <INCHI_KEY>  (1) 
KRHYYFGTRYWZRS-UHFFFAOYSA-N

>  <FORMULA>  (1) 
FH

>  <MOLECULAR_WEIGHT>  (1) 
20.0063

>  <EXACT_MASS>  (1) 
20.006228237

>  <JCHEM_ACCEPTOR_COUNT>  (1) 
0

>  <JCHEM_ATOM_COUNT>  (1) 
2

>  <JCHEM_AVERAGE_NEUTRAL_MICROSPECIES_CHARGE>  (1) 
-0.9998521110355639

>  <JCHEM_AVERAGE_POLARIZABILITY>  (1) 
0.7916237815811438

>  <JCHEM_BIOAVAILABILITY>  (1) 
1

>  <JCHEM_DONOR_COUNT>  (1) 
0

>  <JCHEM_FORMAL_CHARGE>  (1) 
0

>  <JCHEM_GHOSE_FILTER>  (1) 
0

>  <JCHEM_IUPAC>  (1) 
hydrogen fluoride

>  <JCHEM_LOGP>  (1) 
0.14883863966666666

>  <JCHEM_MDDR_LIKE_RULE>  (1) 
0

>  <JCHEM_NEUTRAL_CHARGE>  (1) 
-1

>  <JCHEM_NUMBER_OF_RINGS>  (1) 
0

>  <JCHEM_PHYSIOLOGICAL_CHARGE>  (1) 
-1

>  <JCHEM_PKA_STRONGEST_ACIDIC>  (1) 
3.1699999999999995

>  <JCHEM_POLAR_SURFACE_AREA>  (1) 
0.0

>  <JCHEM_REFRACTIVITY>  (1) 
1.6725

>  <JCHEM_ROTATABLE_BOND_COUNT>  (1) 
0

>  <JCHEM_RULE_OF_FIVE>  (1) 
1

>  <JCHEM_TRADITIONAL_IUPAC>  (1) 
biotin

>  <JCHEM_VEBER_RULE>  (1) 
1

>  <DRUGBANK_ID>  (1) 
DB11072

>  <DRUG_GROUPS>  (1) 
approved

>  <GENERIC_NAME>  (1) 
Hydrogen fluoride

>  <SYNONYMS>  (1) 
fluorure d'hydrogène; Fluorwasserstoff; Hydrofluoric acid; Hydrogen fluoride; Hydrogen fluoride, anhydrous; Hydrogenfluorid

>  <PRODUCTS>  (1) 
Acidulated Phosphate Fluoride Oral Solution; All Solutions Acidulated Phosphate Fluoride Foam; Alpha-Pro; Butler Protect One Minute Apf Fluoride Gel; Denti-Care Topical Fluoride Foam Bubble Gum; Denti-Care Topical Fluoride Foam Grape; Denti-Care Topical Fluoride Foam Orange; Denti-Care Topical Fluoride Foam Raspberry; Denti-Care Topical Sodium Fluoride Strawberry; Henry Schein Minute Topical Fluoride Gel; Henry Schein Minute Topical Foam Fluoride; Henry Schein Topical Fluoride Cream; Oral-B Minute-Foam Orang-A-Tangy; Pascal Puff; Pdf Gel 1.24%; Perfect Choice; Perfect Choice 0.717% Root and Dentin Desens; Phocal Apf; Pro-dentx Comfort Dentin Desensitizer; Thixotropic Acidulated Phos. Fluor. Top. Gel; Topical Fluoride Foam Bubble Gum Flavour; Topical Fluoride Foam Bumble Bee Bubble Gum; Topical Fluoride Foam Koala Berry Flavour; Topical Fluoride Foam Tyranna Grape Flavour; Topical Fluoride Foam Witchy Candy Mint

$$$$
