354
     RDKit          2D

 31 34  0  0  1  0  0  0  0  0999 V2000
    1.6500   -3.6573    0.0000 Cl  0  0  0  0  0  0  0  0  0  0  0  0
    4.5080   -1.1823    0.0000 N   0  0  0  0  0  0  0  0  0  0  0  0
    4.5080    0.4678    0.0000 N   0  0  0  0  0  0  0  0  0  0  0  0
    3.7935   -0.7697    0.0000 C   0  0  0  0  0  0  0  0  0  0  0  0
    5.2224   -0.7697    0.0000 C   0  0  0  0  0  0  0  0  0  0  0  0
    3.7935    0.0553    0.0000 C   0  0  0  0  0  0  0  0  0  0  0  0
    5.2224    0.0553    0.0000 C   0  0  0  0  0  0  0  0  0  0  0  0
    4.5080   -2.0073    0.0000 C   0  0  0  0  0  0  0  0  0  0  0  0
    4.5080    1.2928    0.0000 C   0  0  0  0  0  0  0  0  0  0  0  0
    3.7935   -2.4198    0.0000 C   0  0  0  0  0  0  0  0  0  0  0  0
    5.2224   -2.4198    0.0000 C   0  0  0  0  0  0  0  0  0  0  0  0
    5.2224    1.7053    0.0000 C   0  0  0  0  0  0  0  0  0  0  0  0
    7.3659    2.9428    0.0000 C   0  0  0  0  0  0  0  0  0  0  0  0
    6.6515    2.5303    0.0000 C   0  0  0  0  0  0  0  0  0  0  0  0
    5.2224    2.5303    0.0000 C   0  0  0  0  0  0  0  0  0  0  0  0
    5.9370    1.2928    0.0000 C   0  0  0  0  0  0  0  0  0  0  0  0
    3.7935   -3.2448    0.0000 C   0  0  0  0  0  0  0  0  0  0  0  0
    3.0791   -2.0073    0.0000 C   0  0  0  0  0  0  0  0  0  0  0  0
    5.9370   -2.0073    0.0000 C   0  0  0  0  0  0  0  0  0  0  0  0
    5.2224   -3.2448    0.0000 C   0  0  0  0  0  0  0  0  0  0  0  0
    5.9370    2.9428    0.0000 C   0  0  0  0  0  0  0  0  0  0  0  0
    6.6515    1.7053    0.0000 C   0  0  0  0  0  0  0  0  0  0  0  0
    8.0804    3.3553    0.0000 C   0  0  0  0  0  0  0  0  0  0  0  0
    6.9534    3.6573    0.0000 C   0  0  0  0  0  0  0  0  0  0  0  0
    7.7784    2.2284    0.0000 C   0  0  0  0  0  0  0  0  0  0  0  0
    3.0791   -3.6573    0.0000 C   0  0  0  0  0  0  0  0  0  0  0  0
    2.3645   -2.4198    0.0000 C   0  0  0  0  0  0  0  0  0  0  0  0
    6.6515   -2.4198    0.0000 C   0  0  0  0  0  0  0  0  0  0  0  0
    5.9370   -3.6573    0.0000 C   0  0  0  0  0  0  0  0  0  0  0  0
    2.3645   -3.2448    0.0000 C   0  0  0  0  0  0  0  0  0  0  0  0
    6.6515   -3.2448    0.0000 C   0  0  0  0  0  0  0  0  0  0  0  0
  1 30  1  0
  2  4  1  0
  2  5  1  0
  2  8  1  0
  3  6  1  0
  3  7  1  0
  3  9  1  0
  4  6  1  0
  5  7  1  0
  8 10  1  0
  8 11  1  0
  9 12  1  0
 10 17  2  0
 10 18  1  0
 11 19  2  0
 11 20  1  0
 12 15  2  0
 12 16  1  0
 13 14  1  0
 13 23  1  0
 13 24  1  0
 13 25  1  0
 14 21  2  0
 14 22  1  0
 15 21  1  0
 16 22  2  0
 17 26  1  0
 18 27  2  0
 19 28  1  0
 20 29  2  0
 26 30  2  0
 27 30  1  0
 28 31  2  0
 29 31  1  0
M  END
>  <DATABASE_ID>  (1) 
DB00354

>  <DATABASE_NAME>  (1) 
drugbank

>  <SMILES>  (1) 
CC(C)(C)C1=CC=C(CN2CCN(CC2)C(C2=CC=CC=C2)C2=CC=C(Cl)C=C2)C=C1

>  <INCHI_IDENTIFIER>  (1) 
InChI=1S/C28H33ClN2/c1-28(2,3)25-13-9-22(10-14-25)21-30-17-19-31(20-18-30)27(23-7-5-4-6-8-23)24-11-15-26(29)16-12-24/h4-16,27H,17-21H2,1-3H3

>  <INCHI_KEY>  (1) 
MOYGZHXDRJNJEP-UHFFFAOYSA-N

>  <FORMULA>  (1) 
C28H33ClN2

>  <MOLECULAR_WEIGHT>  (1) 
433.028

>  <EXACT_MASS>  (1) 
432.233226773

>  <JCHEM_ACCEPTOR_COUNT>  (1) 
2

>  <JCHEM_ATOM_COUNT>  (1) 
64

>  <JCHEM_AVERAGE_NEUTRAL_MICROSPECIES_CHARGE>  (1) 
0.7486448932169544

>  <JCHEM_AVERAGE_POLARIZABILITY>  (1) 
50.93646575455368

>  <JCHEM_BIOAVAILABILITY>  (1) 
1

>  <JCHEM_DONOR_COUNT>  (1) 
0

>  <JCHEM_FORMAL_CHARGE>  (1) 
0

>  <JCHEM_GHOSE_FILTER>  (1) 
0

>  <JCHEM_IUPAC>  (1) 
1-[(4-tert-butylphenyl)methyl]-4-[(4-chlorophenyl)(phenyl)methyl]piperazine

>  <ALOGPS_LOGP>  (1) 
6.16

>  <JCHEM_LOGP>  (1) 
7.419576413666666

>  <ALOGPS_LOGS>  (1) 
-6.25

>  <JCHEM_MDDR_LIKE_RULE>  (1) 
1

>  <JCHEM_NEUTRAL_CHARGE>  (1) 
1

>  <JCHEM_NUMBER_OF_RINGS>  (1) 
4

>  <JCHEM_PHYSIOLOGICAL_CHARGE>  (1) 
1

>  <JCHEM_PKA_STRONGEST_BASIC>  (1) 
7.598589521248113

>  <JCHEM_POLAR_SURFACE_AREA>  (1) 
6.48

>  <JCHEM_REFRACTIVITY>  (1) 
133.01690000000002

>  <JCHEM_ROTATABLE_BOND_COUNT>  (1) 
6

>  <JCHEM_RULE_OF_FIVE>  (1) 
0

>  <ALOGPS_SOLUBILITY>  (1) 
2.46e-04 g/l

>  <JCHEM_TRADITIONAL_IUPAC>  (1) 
biotin

>  <JCHEM_VEBER_RULE>  (1) 
1

>  <DRUGBANK_ID>  (1) 
DB00354

>  <SECONDARY_ACCESSION_NUMBERS>  (1) 
APRD00723

>  <DRUG_GROUPS>  (1) 
approved

>  <GENERIC_NAME>  (1) 
Buclizine

>  <SYNONYMS>  (1) 
1-(p-tert-Butylbenzyl)-4-(4-chloro-alpha-phenylbenzyl)piperazine; Buclizina; Buclizine; Buclizinum

>  <INTERNATIONAL_BRANDS>  (1) 
Bucladin; Bucladin-S; Longifene Syrup

>  <SALTS>  (1) 
Buclizine hydrochloride

$$$$
