
     RDKit          2D

 11 11  0  0  1  0  0  0  0  0999 V2000
   -0.7145    2.0625    0.0000 C   0  0  0  0  0  0  0  0  0  0  0  0
    0.0000    2.4750    0.0000 C   0  0  0  0  0  0  0  0  0  0  0  0
    0.7145    2.0625    0.0000 C   0  0  0  0  0  0  0  0  0  0  0  0
    0.7145    1.2375    0.0000 C   0  0  0  0  0  0  0  0  0  0  0  0
    1.4289    0.8250    0.0000 C   0  0  0  0  0  0  0  0  0  0  0  0
    1.4289   -0.0000    0.0000 C   0  0  0  0  0  0  0  0  0  0  0  0
    0.7145   -0.4125    0.0000 C   0  0  0  0  0  0  0  0  0  0  0  0
    0.0000    0.0000    0.0000 C   0  0  0  0  0  0  0  0  0  0  0  0
    0.0000    0.8250    0.0000 C   0  0  0  0  0  0  0  0  0  0  0  0
    0.0000    3.3000    0.0000 N   0  0  0  0  0  0  0  0  0  0  0  0
   -0.7145    3.7125    0.0000 C   0  0  0  0  0  0  0  0  0  0  0  0
  2  1  1  1
  2  3  1  0
  3  4  1  0
  4  5  2  0
  5  6  1  0
  6  7  2  0
  7  8  1  0
  8  9  2  0
  4  9  1  0
  2 10  1  0
 10 11  1  0
M  END
>  <DATABASE_ID>  (1) 
DB09571

>  <DATABASE_NAME>  (1) 
drugbank

>  <SMILES>  (1) 
CN[C@H](C)CC1=CC=CC=C1

>  <INCHI_IDENTIFIER>  (1) 
InChI=1S/C10H15N/c1-9(11-2)8-10-6-4-3-5-7-10/h3-7,9,11H,8H2,1-2H3/t9-/m1/s1

>  <INCHI_KEY>  (1) 
MYWUZJCMWCOHBA-SECBINFHSA-N

>  <FORMULA>  (1) 
C10H15N

>  <MOLECULAR_WEIGHT>  (1) 
149.237

>  <EXACT_MASS>  (1) 
149.120449487

>  <JCHEM_ACCEPTOR_COUNT>  (1) 
1

>  <JCHEM_ATOM_COUNT>  (1) 
26

>  <JCHEM_AVERAGE_POLARIZABILITY>  (1) 
18.08885352813741

>  <JCHEM_BIOAVAILABILITY>  (1) 
1

>  <JCHEM_DONOR_COUNT>  (1) 
1

>  <JCHEM_FORMAL_CHARGE>  (1) 
0

>  <JCHEM_GHOSE_FILTER>  (1) 
0

>  <JCHEM_IUPAC>  (1) 
methyl[(2R)-1-phenylpropan-2-yl]amine

>  <ALOGPS_LOGP>  (1) 
2.23

>  <JCHEM_LOGP>  (1) 
2.2368308753333324

>  <ALOGPS_LOGS>  (1) 
-2.21

>  <JCHEM_MDDR_LIKE_RULE>  (1) 
0

>  <JCHEM_NUMBER_OF_RINGS>  (1) 
1

>  <JCHEM_PHYSIOLOGICAL_CHARGE>  (1) 
1

>  <JCHEM_PKA_STRONGEST_BASIC>  (1) 
10.20988414728296

>  <JCHEM_POLAR_SURFACE_AREA>  (1) 
12.03

>  <JCHEM_REFRACTIVITY>  (1) 
48.479800000000004

>  <JCHEM_ROTATABLE_BOND_COUNT>  (1) 
3

>  <JCHEM_RULE_OF_FIVE>  (1) 
1

>  <ALOGPS_SOLUBILITY>  (1) 
9.28e-01 g/l

>  <JCHEM_TRADITIONAL_IUPAC>  (1) 
(-)-methamphetamine

>  <JCHEM_VEBER_RULE>  (1) 
1

>  <DRUGBANK_ID>  (1) 
DB09571

>  <DRUG_GROUPS>  (1) 
approved

>  <GENERIC_NAME>  (1) 
Levmetamfetamine

>  <SYNONYMS>  (1) 
Levmetamfetamine; Levomethamphetamine

>  <PRODUCTS>  (1) 
1st Vaporizing Inhaler; Amoray Vaporizing Inhaler; Levmetamfetamine; Nasal Decongestant Inhaler; Sinu Inhaler; Vapor Inhaler; Vapor Inhaler levmetamfetamine nasal decongestant, Best Choice; Vapor Inhaler levmetamfetamine nasal decongestant, DG health; Vapor Inhaler levmetamfetamine nasal decongestant, Equaline; Vapor Inhaler levmetamfetamine nasal decongestant, Good Sense; Vapor Inhaler levmetamfetamine nasal decongestant, TopCare health; Vicks VapoInhaler; Vicks Vapor Inhaler

$$$$
