
     RDKit          2D

  6  5  0  0  0  0  0  0  0  0999 V2000
    0.3572    0.2062    0.0000 C   0  0  0  0  0  0  0  0  0  0  0  0
   -0.3572   -0.2061    0.0000 C   0  0  0  0  0  0  0  0  0  0  0  0
    1.0717   -0.2062    0.0000 O   0  0  0  0  0  0  0  0  0  0  0  0
   -1.0717    0.2063    0.0000 C   0  0  0  0  0  0  0  0  0  0  0  0
    0.3572    1.0312    0.0000 O   0  0  0  0  0  0  0  0  0  0  0  0
   -0.3572   -1.0312    0.0000 O   0  0  0  0  0  0  0  0  0  0  0  0
  1  5  2  0
  1  2  1  0
  2  6  1  0
  1  3  1  0
  2  4  1  1
M  END
>  <DATABASE_ID>  (1) 
DB14475

>  <DATABASE_NAME>  (1) 
drugbank

>  <SMILES>  (1) 
C[C@H](O)C(O)=O

>  <INCHI_IDENTIFIER>  (1) 
InChI=1S/C3H6O3/c1-2(4)3(5)6/h2,4H,1H3,(H,5,6)/t2-/m0/s1

>  <INCHI_KEY>  (1) 
JVTAAEKCZFNVCJ-REOHCLBHSA-N

>  <FORMULA>  (1) 
C3H6O3

>  <MOLECULAR_WEIGHT>  (1) 
90.0779

>  <EXACT_MASS>  (1) 
90.031694058

>  <JCHEM_ACCEPTOR_COUNT>  (1) 
3

>  <JCHEM_ATOM_COUNT>  (1) 
12

>  <JCHEM_AVERAGE_POLARIZABILITY>  (1) 
8.05675743839785

>  <JCHEM_BIOAVAILABILITY>  (1) 
1

>  <JCHEM_DONOR_COUNT>  (1) 
2

>  <JCHEM_FORMAL_CHARGE>  (1) 
0

>  <JCHEM_GHOSE_FILTER>  (1) 
0

>  <JCHEM_IUPAC>  (1) 
(2S)-2-hydroxypropanoic acid

>  <ALOGPS_LOGP>  (1) 
-0.79

>  <JCHEM_LOGP>  (1) 
-0.47182951800000017

>  <ALOGPS_LOGS>  (1) 
0.79

>  <JCHEM_MDDR_LIKE_RULE>  (1) 
0

>  <JCHEM_NUMBER_OF_RINGS>  (1) 
0

>  <JCHEM_PHYSIOLOGICAL_CHARGE>  (1) 
-1

>  <JCHEM_PKA>  (1) 
14.593508084825753

>  <JCHEM_PKA_STRONGEST_ACIDIC>  (1) 
3.784942414122652

>  <JCHEM_PKA_STRONGEST_BASIC>  (1) 
-3.6696493832413326

>  <JCHEM_POLAR_SURFACE_AREA>  (1) 
57.53

>  <JCHEM_REFRACTIVITY>  (1) 
18.8398

>  <JCHEM_ROTATABLE_BOND_COUNT>  (1) 
1

>  <JCHEM_RULE_OF_FIVE>  (1) 
1

>  <ALOGPS_SOLUBILITY>  (1) 
5.62e+02 g/l

>  <JCHEM_TRADITIONAL_IUPAC>  (1) 
(α)-lactate

>  <JCHEM_VEBER_RULE>  (1) 
0

>  <DRUGBANK_ID>  (1) 
DB14475

>  <DRUG_GROUPS>  (1) 
approved; investigational

>  <GENERIC_NAME>  (1) 
L-Lactic acid

>  <SYNONYMS>  (1) 
(+)-lactic acid; (S)-(+)-lactic acid; (S)-2-hydroxypropanoic acid; (S)-2-hydroxypropionic acid; (S)-lactic acid; L-(+)-lactic acid; L-(+)-α-hydroxypropionic acid; L-Lactic acid; L-Milchsäure

>  <PRODUCTS>  (1) 
Phexx; Phexxi; Prismasol 2; Prismasol 4

$$$$
