
     RDKit          2D

 42 42  0  0  0  0  0  0  0  0999 V2000
   -1.7861    1.2374    0.0000 C   0  0  0  0  0  0  0  0  0  0  0  0
   -1.7861    0.4124    0.0000 C   0  0  0  0  0  0  0  0  0  0  0  0
   -2.5007    1.6500    0.0000 C   0  0  0  0  0  0  0  0  0  0  0  0
   -2.5007    0.0000    0.0000 C   0  0  0  0  0  0  0  0  0  0  0  0
   -3.2151    1.2374    0.0000 C   0  0  0  0  0  0  0  0  0  0  0  0
   -3.2151    0.4124    0.0000 C   0  0  0  0  0  0  0  0  0  0  0  0
    1.0717    1.2374    0.0000 C   0  0  0  0  0  0  0  0  0  0  0  0
    0.3572    1.6500    0.0000 C   0  0  0  0  0  0  0  0  0  0  0  0
   -0.3572    1.2374    0.0000 O   0  0  0  0  0  0  0  0  0  0  0  0
    1.7861    1.6499    0.0000 O   0  0  0  0  0  0  0  0  0  0  0  0
    2.5006    1.2373    0.0000 C   0  0  0  0  0  0  0  0  0  0  0  0
    3.9296    1.2373    0.0000 O   0  0  0  0  0  0  0  0  0  0  0  0
    3.2151    1.6499    0.0000 C   0  0  0  0  0  0  0  0  0  0  0  0
    5.3586    1.2373    0.0000 C   0  0  0  0  0  0  0  0  0  0  0  0
    4.6440    1.6499    0.0000 C   0  0  0  0  0  0  0  0  0  0  0  0
   -1.0716    1.6500    0.0000 C   0  0  0  0  0  0  0  0  0  0  0  0
   -1.0717    2.4749    0.0000 O   0  0  0  0  0  0  0  0  0  0  0  0
   -3.9296    0.0000    0.0000 N   0  0  0  0  0  0  0  0  0  0  0  0
   -0.3570   -1.2378    0.0000 C   0  0  0  0  0  0  0  0  0  0  0  0
   -1.0716   -0.8254    0.0000 C   0  0  0  0  0  0  0  0  0  0  0  0
    0.3573   -0.8254    0.0000 O   0  0  0  0  0  0  0  0  0  0  0  0
    1.0717   -1.2378    0.0000 C   0  0  0  0  0  0  0  0  0  0  0  0
    2.5007   -1.2378    0.0000 O   0  0  0  0  0  0  0  0  0  0  0  0
    1.7862   -0.8254    0.0000 C   0  0  0  0  0  0  0  0  0  0  0  0
    4.6441   -0.0001    0.0000 C   0  0  0  0  0  0  0  0  0  0  0  0
    3.2151   -0.0004    0.0000 O   0  0  0  0  0  0  0  0  0  0  0  0
    3.9296    0.4122    0.0000 C   0  0  0  0  0  0  0  0  0  0  0  0
    2.5007    0.4119    0.0000 C   0  0  0  0  0  0  0  0  0  0  0  0
    1.7863   -0.0005    0.0000 C   0  0  0  0  0  0  0  0  0  0  0  0
    1.0715    0.4121    0.0000 O   0  0  0  0  0  0  0  0  0  0  0  0
    0.3571   -0.0005    0.0000 C   0  0  0  0  0  0  0  0  0  0  0  0
   -0.3571    0.4117    0.0000 C   0  0  0  0  0  0  0  0  0  0  0  0
   -1.0714   -0.0006    0.0000 O   0  0  0  0  0  0  0  0  0  0  0  0
    5.3585    0.4123    0.0000 O   0  0  0  0  0  0  0  0  0  0  0  0
    3.2152   -0.8252    0.0000 C   0  0  0  0  0  0  0  0  0  0  0  0
    3.9297   -1.2378    0.0000 C   0  0  0  0  0  0  0  0  0  0  0  0
    4.6442   -0.8252    0.0000 O   0  0  0  0  0  0  0  0  0  0  0  0
    5.3586   -1.2376    0.0000 C   0  0  0  0  0  0  0  0  0  0  0  0
   -3.9296   -0.8250    0.0000 C   0  0  0  0  0  0  0  0  0  0  0  0
   -4.6441   -1.2375    0.0000 C   0  0  0  0  0  0  0  0  0  0  0  0
   -4.6441   -2.0624    0.0000 C   0  0  0  0  0  0  0  0  0  0  0  0
   -5.3586   -2.4749    0.0000 C   0  0  0  0  0  0  0  0  0  0  0  0
  2  1  2  0
  3  1  1  0
  4  2  1  0
  5  3  2  0
  6  4  2  0
  6  5  1  0
  8  7  1  0
  9  8  1  0
 10  7  1  0
 11 10  1  0
 13 12  1  0
 11 13  1  0
 15 14  1  0
 12 15  1  0
  9 16  1  0
 16 17  2  0
 16  1  1  0
  6 18  1  0
 27 25  1  0
 27 26  1  0
 28 26  1  0
 24 23  1  0
 29 28  1  0
 22 24  1  0
 30 29  1  0
 21 22  1  0
 31 30  1  0
 19 21  1  0
 32 31  1  0
 20 19  1  0
 33 32  1  0
 33 20  1  0
 25 34  1  0
 14 34  1  0
 23 35  1  0
 35 36  1  0
 36 37  1  0
 37 38  1  0
 18 39  1  0
 39 40  1  0
 40 41  1  0
 41 42  1  0
M  END
>  <DATABASE_ID>  (1) 
DB00868

>  <DATABASE_NAME>  (1) 
drugbank

>  <SMILES>  (1) 
CCCCNC1=CC=C(C=C1)C(=O)OCCOCCOCCOCCOCCOCCOCCOCCOCCOC

>  <INCHI_IDENTIFIER>  (1) 
InChI=1S/C30H53NO11/c1-3-4-9-31-29-7-5-28(6-8-29)30(32)42-27-26-41-25-24-40-23-22-39-21-20-38-19-18-37-17-16-36-15-14-35-13-12-34-11-10-33-2/h5-8,31H,3-4,9-27H2,1-2H3

>  <INCHI_KEY>  (1) 
MAFMQEKGGFWBAB-UHFFFAOYSA-N

>  <FORMULA>  (1) 
C30H53NO11

>  <MOLECULAR_WEIGHT>  (1) 
603.7419

>  <EXACT_MASS>  (1) 
603.361861543

>  <JCHEM_ACCEPTOR_COUNT>  (1) 
11

>  <JCHEM_ATOM_COUNT>  (1) 
95

>  <JCHEM_AVERAGE_POLARIZABILITY>  (1) 
67.8658188722867

>  <JCHEM_BIOAVAILABILITY>  (1) 
0

>  <JCHEM_DONOR_COUNT>  (1) 
1

>  <JCHEM_FORMAL_CHARGE>  (1) 
0

>  <JCHEM_GHOSE_FILTER>  (1) 
0

>  <JCHEM_IUPAC>  (1) 
2,5,8,11,14,17,20,23,26-nonaoxaoctacosan-28-yl 4-(butylamino)benzoate

>  <ALOGPS_LOGP>  (1) 
2.09

>  <JCHEM_LOGP>  (1) 
2.3506203470000004

>  <ALOGPS_LOGS>  (1) 
-5.58

>  <JCHEM_MDDR_LIKE_RULE>  (1) 
0

>  <JCHEM_NUMBER_OF_RINGS>  (1) 
1

>  <JCHEM_PHYSIOLOGICAL_CHARGE>  (1) 
0

>  <JCHEM_PKA_STRONGEST_BASIC>  (1) 
3.4742756540197273

>  <JCHEM_POLAR_SURFACE_AREA>  (1) 
121.40000000000002

>  <JCHEM_REFRACTIVITY>  (1) 
161.54219999999992

>  <JCHEM_ROTATABLE_BOND_COUNT>  (1) 
33

>  <JCHEM_RULE_OF_FIVE>  (1) 
0

>  <ALOGPS_SOLUBILITY>  (1) 
1.59e-03 g/l

>  <JCHEM_TRADITIONAL_IUPAC>  (1) 
benzonatate

>  <JCHEM_VEBER_RULE>  (1) 
0

>  <DRUGBANK_ID>  (1) 
DB00868

>  <SECONDARY_ACCESSION_NUMBERS>  (1) 
APRD00629

>  <DRUG_GROUPS>  (1) 
approved

>  <GENERIC_NAME>  (1) 
Benzonatate

>  <SYNONYMS>  (1) 
2-[2-[2-[2-[2-[2-[2-[2-(2-methoxyethoxy)ethoxy]ethoxy]ethoxy]ethoxy]ethoxy]ethoxy]ethoxy]ethyl 4-butylaminobenzoate; 2,5,8,11,14,17,20,23,26-nonaoxaoctacosan-28-yl p-(butylamino)benzoate; 3,6,9,12,15,18,21,24,27-nonaoxaoctacosyl 4-butylaminobenzoate; 4-(butylamino)benzoic acid 3,6,9,12,15,18,21,24,27-nonaoxaoctacos-1-yl ester; Benzonatat; Benzonatate; Benzonatato; Benzonatatum; Benzononatine; nonaethyleneglycol monomethyl ether p-n-butylaminobenzoate; p-butylaminobenzoic acid ω-O-methylnonaethyleneglycol ester

>  <PRODUCTS>  (1) 
Benzonatate; Tessalon; Zonatuss

>  <INTERNATIONAL_BRANDS>  (1) 
Exangit; Tesaperl; Tessalon Perles; Ventussin

$$$$
