
     RDKit          2D

  3  2  0  0  0  0  0  0  0  0999 V2000
    0.0000    0.0000    0.0000 Zr  0  0  0  0  0  2  0  0  0  0  0  0
   -0.8250    0.0000    0.0000 O   0  0  0  0  0  0  0  0  0  0  0  0
    0.8250    0.0000    0.0000 Cl  0  0  0  0  0  0  0  0  0  0  0  0
  1  2  1  0
  1  3  1  0
M  END
>  <DATABASE_ID>  (1) 
DB15479

>  <DATABASE_NAME>  (1) 
drugbank

>  <SMILES>  (1) 
O[Zr]Cl

>  <INCHI_IDENTIFIER>  (1) 
InChI=1S/ClH.H2O.Zr/h1H;1H2;/q;;+2/p-2

>  <INCHI_KEY>  (1) 
BLKLTTCUAPDQEG-UHFFFAOYSA-L

>  <FORMULA>  (1) 
ClHOZr

>  <MOLECULAR_WEIGHT>  (1) 
143.68

>  <EXACT_MASS>  (1) 
141.87629

>  <JCHEM_ACCEPTOR_COUNT>  (1) 
1

>  <JCHEM_ATOM_COUNT>  (1) 
4

>  <JCHEM_AVERAGE_POLARIZABILITY>  (1) 
5.878405127841888

>  <JCHEM_BIOAVAILABILITY>  (1) 
1

>  <JCHEM_DONOR_COUNT>  (1) 
1

>  <JCHEM_FORMAL_CHARGE>  (1) 
0

>  <JCHEM_GHOSE_FILTER>  (1) 
0

>  <JCHEM_IUPAC>  (1) 
chlorozirconiumol

>  <ALOGPS_LOGP>  (1) 
-0.45

>  <JCHEM_LOGP>  (1) 
0.09830000000000004

>  <ALOGPS_LOGS>  (1) 
0.03

>  <JCHEM_MDDR_LIKE_RULE>  (1) 
0

>  <JCHEM_NUMBER_OF_RINGS>  (1) 
0

>  <JCHEM_PHYSIOLOGICAL_CHARGE>  (1) 
0

>  <JCHEM_PKA_STRONGEST_ACIDIC>  (1) 
15.27449687786852

>  <JCHEM_PKA_STRONGEST_BASIC>  (1) 
-2.678735065620308

>  <JCHEM_POLAR_SURFACE_AREA>  (1) 
20.23

>  <JCHEM_REFRACTIVITY>  (1) 
8.7009

>  <JCHEM_ROTATABLE_BOND_COUNT>  (1) 
0

>  <JCHEM_RULE_OF_FIVE>  (1) 
1

>  <ALOGPS_SOLUBILITY>  (1) 
1.54e+02 g/l

>  <JCHEM_TRADITIONAL_IUPAC>  (1) 
sodium taurocholate

>  <JCHEM_VEBER_RULE>  (1) 
1

>  <DRUGBANK_ID>  (1) 
DB15479

>  <DRUG_GROUPS>  (1) 
approved; withdrawn

>  <GENERIC_NAME>  (1) 
Zirconium chloride hydroxide

>  <SYNONYMS>  (1) 
Zirconium chloride hydroxide; Zirconium chlorohydrate; Zirconium hydroxychloride; Zirconyl hydroxychloride

>  <PRODUCTS>  (1) 
Secret Sporty Clean Antiperspirant Roll-ON

$$$$
