
     RDKit          2D

 10 10  0  0  0  0  0  0  0  0999 V2000
   -0.7145    3.7125    0.0000 C   0  0  0  0  0  0  0  0  0  0  0  0
    0.0000    3.3000    0.0000 N   0  0  0  0  0  0  0  0  0  0  0  0
    0.0000    2.4750    0.0000 C   0  0  0  0  0  0  0  0  0  0  0  0
    0.7145    2.0625    0.0000 C   0  0  0  0  0  0  0  0  0  0  0  0
    0.7145    1.2375    0.0000 C   0  0  0  0  0  0  0  0  0  0  0  0
    1.4289    0.8250    0.0000 C   0  0  0  0  0  0  0  0  0  0  0  0
    1.4289    0.0000    0.0000 C   0  0  0  0  0  0  0  0  0  0  0  0
    0.7145   -0.4125    0.0000 C   0  0  0  0  0  0  0  0  0  0  0  0
    0.0000    0.0000    0.0000 C   0  0  0  0  0  0  0  0  0  0  0  0
    0.0000    0.8250    0.0000 N   0  0  0  0  0  0  0  0  0  0  0  0
  1  2  1  0
  2  3  1  0
  3  4  1  0
  4  5  1  0
  5  6  2  0
  6  7  1  0
  7  8  2  0
  8  9  1  0
  9 10  2  0
  5 10  1  0
M  END
>  <DATABASE_ID>  (1) 
DB06698

>  <DATABASE_NAME>  (1) 
drugbank

>  <SMILES>  (1) 
CNCCC1=CC=CC=N1

>  <INCHI_IDENTIFIER>  (1) 
InChI=1S/C8H12N2/c1-9-7-5-8-4-2-3-6-10-8/h2-4,6,9H,5,7H2,1H3

>  <INCHI_KEY>  (1) 
UUQMNUMQCIQDMZ-UHFFFAOYSA-N

>  <FORMULA>  (1) 
C8H12N2

>  <MOLECULAR_WEIGHT>  (1) 
136.1943

>  <EXACT_MASS>  (1) 
136.100048394

>  <JCHEM_ACCEPTOR_COUNT>  (1) 
2

>  <JCHEM_ATOM_COUNT>  (1) 
22

>  <JCHEM_AVERAGE_NEUTRAL_MICROSPECIES_CHARGE>  (1) 
0.9990495844843749

>  <JCHEM_AVERAGE_POLARIZABILITY>  (1) 
15.847728326464626

>  <JCHEM_BIOAVAILABILITY>  (1) 
1

>  <JCHEM_DONOR_COUNT>  (1) 
1

>  <JCHEM_FORMAL_CHARGE>  (1) 
0

>  <JCHEM_GHOSE_FILTER>  (1) 
0

>  <JCHEM_IUPAC>  (1) 
methyl[2-(pyridin-2-yl)ethyl]amine

>  <ALOGPS_LOGP>  (1) 
0.59

>  <JCHEM_LOGP>  (1) 
0.6324068453333336

>  <ALOGPS_LOGS>  (1) 
-0.44

>  <JCHEM_MDDR_LIKE_RULE>  (1) 
0

>  <JCHEM_NEUTRAL_CHARGE>  (1) 
1

>  <JCHEM_NUMBER_OF_RINGS>  (1) 
1

>  <JCHEM_PHYSIOLOGICAL_CHARGE>  (1) 
1

>  <JCHEM_PKA_STRONGEST_BASIC>  (1) 
9.769621036671913

>  <JCHEM_POLAR_SURFACE_AREA>  (1) 
24.92

>  <JCHEM_REFRACTIVITY>  (1) 
41.326299999999996

>  <JCHEM_ROTATABLE_BOND_COUNT>  (1) 
3

>  <JCHEM_RULE_OF_FIVE>  (1) 
1

>  <ALOGPS_SOLUBILITY>  (1) 
4.93e+01 g/l

>  <JCHEM_TRADITIONAL_IUPAC>  (1) 
tetrahydrofolic acid

>  <JCHEM_VEBER_RULE>  (1) 
1

>  <DRUGBANK_ID>  (1) 
DB06698

>  <DRUG_GROUPS>  (1) 
approved; investigational

>  <GENERIC_NAME>  (1) 
Betahistine

>  <SYNONYMS>  (1) 
[2-(2-pyridyl)ethyl]methylamine; 2-(β-methylaminoethyl)pyridine; 2-[2-(methylamino)ethyl]pyridine; Betahistina; Bétahistine; Betahistine; Betahistinum; N-methyl-2-(2-pyridinyl)ethanamine; N-methyl-2-pyridineethanamine

>  <PRODUCTS>  (1) 
Act Betahistine; Apo-betahistine; Auro-betahistine; Betahistine; M-betahistine; Mint-betahistine; Nra-betahistine; PMS-betahistine; Serc; Serc - Tab 4mg; Serc 4mg; Serc 8 mg; Teva-betahistine

>  <SALTS>  (1) 
Betahistine hydrochloride; Betahistine maleate; Betahistine mesylate

$$$$
