4816
     RDKit          2D

 18 20  0  0  0  0  0  0  0  0999 V2000
    3.6957    1.4452    0.0000 O   0  0  0  0  0  0  0  0  0  0  0  0
    3.6957   -1.7230    0.0000 O   0  0  0  0  0  0  0  0  0  0  0  0
    5.0805    1.4726    0.0000 O   0  0  0  0  0  0  0  0  0  0  0  0
    2.3109    1.4726    0.0000 O   0  0  0  0  0  0  0  0  0  0  0  0
    4.3817    0.2571    0.0000 C   0  0  0  0  0  0  0  0  0  0  0  0
    3.0098    0.2571    0.0000 C   0  0  0  0  0  0  0  0  0  0  0  0
    4.3817   -0.5350    0.0000 C   0  0  0  0  0  0  0  0  0  0  0  0
    3.0098   -0.5350    0.0000 C   0  0  0  0  0  0  0  0  0  0  0  0
    3.6957    0.6531    0.0000 C   0  0  0  0  0  0  0  0  0  0  0  0
    3.6957   -0.9310    0.0000 C   0  0  0  0  0  0  0  0  0  0  0  0
    5.0897    0.6806    0.0000 C   0  0  0  0  0  0  0  0  0  0  0  0
    2.3018    0.6806    0.0000 C   0  0  0  0  0  0  0  0  0  0  0  0
    5.0897   -0.9585    0.0000 C   0  0  0  0  0  0  0  0  0  0  0  0
    2.3018   -0.9585    0.0000 C   0  0  0  0  0  0  0  0  0  0  0  0
    5.8074    0.2736    0.0000 C   0  0  0  0  0  0  0  0  0  0  0  0
    1.5841    0.2736    0.0000 C   0  0  0  0  0  0  0  0  0  0  0  0
    5.8074   -0.5514    0.0000 C   0  0  0  0  0  0  0  0  0  0  0  0
    1.5841   -0.5514    0.0000 C   0  0  0  0  0  0  0  0  0  0  0  0
  1  9  2  0
  2 10  2  0
  3 11  1  0
  4 12  1  0
  5  7  2  0
  5  9  1  0
  5 11  1  0
  6  8  2  0
  6  9  1  0
  6 12  1  0
  7 10  1  0
  7 13  1  0
  8 10  1  0
  8 14  1  0
 11 15  2  0
 12 16  2  0
 13 17  2  0
 14 18  2  0
 15 17  1  0
 16 18  1  0
M  END
>  <DATABASE_ID>  (1) 
DB04816

>  <DATABASE_NAME>  (1) 
drugbank

>  <SMILES>  (1) 
OC1=CC=CC2=C1C(=O)C1=C(C=CC=C1O)C2=O

>  <INCHI_IDENTIFIER>  (1) 
InChI=1S/C14H8O4/c15-9-5-1-3-7-11(9)14(18)12-8(13(7)17)4-2-6-10(12)16/h1-6,15-16H

>  <INCHI_KEY>  (1) 
QBPFLULOKWLNNW-UHFFFAOYSA-N

>  <FORMULA>  (1) 
C14H8O4

>  <MOLECULAR_WEIGHT>  (1) 
240.2109

>  <EXACT_MASS>  (1) 
240.042258744

>  <JCHEM_ACCEPTOR_COUNT>  (1) 
4

>  <JCHEM_ATOM_COUNT>  (1) 
26

>  <JCHEM_AVERAGE_NEUTRAL_MICROSPECIES_CHARGE>  (1) 
-0.16885289455922778

>  <JCHEM_AVERAGE_POLARIZABILITY>  (1) 
23.192673494429897

>  <JCHEM_BIOAVAILABILITY>  (1) 
1

>  <JCHEM_DONOR_COUNT>  (1) 
2

>  <JCHEM_FORMAL_CHARGE>  (1) 
0

>  <JCHEM_GHOSE_FILTER>  (1) 
1

>  <JCHEM_IUPAC>  (1) 
1,8-dihydroxy-9,10-dihydroanthracene-9,10-dione

>  <ALOGPS_LOGP>  (1) 
2.98

>  <JCHEM_LOGP>  (1) 
3.6115754313333324

>  <ALOGPS_LOGS>  (1) 
-2.90

>  <JCHEM_MDDR_LIKE_RULE>  (1) 
0

>  <JCHEM_NEUTRAL_CHARGE>  (1) 
0

>  <JCHEM_NUMBER_OF_RINGS>  (1) 
3

>  <JCHEM_PHYSIOLOGICAL_CHARGE>  (1) 
0

>  <JCHEM_PKA>  (1) 
8.538104134126353

>  <JCHEM_PKA_STRONGEST_ACIDIC>  (1) 
7.890131898008518

>  <JCHEM_PKA_STRONGEST_BASIC>  (1) 
-5.646801086942521

>  <JCHEM_POLAR_SURFACE_AREA>  (1) 
74.60000000000001

>  <JCHEM_REFRACTIVITY>  (1) 
65.11280000000002

>  <JCHEM_ROTATABLE_BOND_COUNT>  (1) 
0

>  <JCHEM_RULE_OF_FIVE>  (1) 
1

>  <ALOGPS_SOLUBILITY>  (1) 
3.05e-01 g/l

>  <JCHEM_TRADITIONAL_IUPAC>  (1) 
tetrahydrofolic acid

>  <JCHEM_VEBER_RULE>  (1) 
0

>  <DRUGBANK_ID>  (1) 
DB04816

>  <DRUG_GROUPS>  (1) 
approved; withdrawn

>  <GENERIC_NAME>  (1) 
Dantron

>  <SYNONYMS>  (1) 
1,8-dihydroxy-9,10-anthracenedione; 1,8-dihydroxy-9,10-anthraquinone; 1,8-dihydroxyanthra-9,10-quinone; 1,8-Dihydroxyanthrachinon; 1,8-Dihydroxyanthraquinone; Chrysazin; Danthron; Dantron; Dantrona; Dantrone; Dantronum

>  <PRODUCTS>  (1) 
Doss Tab; Regulex D Cap

>  <INTERNATIONAL_BRANDS>  (1) 
Altan; Antrapurol; Bancon; Duolax; Prugol; Roydan; Scatron D; Zwitsalax

$$$$
