
     RDKit          2D

 17 19  0  0  1  0  0  0  0  0999 V2000
    0.0422    2.1823    0.0000 C   0  0  0  0  0  0  0  0  0  0  0  0
    0.2971    1.3977    0.0000 C   0  0  0  0  0  0  0  0  0  0  0  0
   -0.2549    0.7846    0.0000 C   0  0  0  0  0  0  0  0  0  0  0  0
   -1.0619    0.9561    0.0000 C   0  0  0  0  0  0  0  0  0  0  0  0
   -1.3168    1.7408    0.0000 C   0  0  0  0  0  0  0  0  0  0  0  0
   -0.7648    2.3539    0.0000 C   0  0  0  0  0  0  0  0  0  0  0  0
   -1.0198    3.1385    0.0000 C   0  0  0  0  0  0  0  0  0  0  0  0
   -1.2747    3.9231    0.0000 N   0  0  0  0  0  0  0  0  0  0  0  0
   -1.6139    0.3431    0.0000 F   0  0  0  0  0  0  0  0  0  0  0  0
   -0.0000   -0.0000    0.0000 C   0  0  0  0  0  0  0  0  0  0  0  0
   -0.4849   -0.6674    0.0000 C   0  0  0  0  0  0  0  0  0  0  0  0
   -0.0000   -1.3349    0.0000 C   0  0  0  0  0  0  0  0  0  0  0  0
    0.7846   -1.0799    0.0000 C   0  0  0  0  0  0  0  0  0  0  0  0
    0.7846   -0.2549    0.0000 N   0  0  0  0  0  0  0  0  0  0  0  0
    1.5692    0.0000    0.0000 C   0  0  0  0  0  0  0  0  0  0  0  0
    2.0542   -0.6674    0.0000 N   0  0  0  0  0  0  0  0  0  0  0  0
    1.5692   -1.3349    0.0000 C   0  0  0  0  0  0  0  0  0  0  0  0
  1  2  2  0
  2  3  1  0
  3  4  2  0
  4  5  1  0
  5  6  2  0
  1  6  1  0
  6  7  1  0
  7  8  3  0
  4  9  1  0
 10  3  1  6
 10 11  1  0
 11 12  1  0
 12 13  1  0
 13 14  1  0
 10 14  1  0
 14 15  1  0
 15 16  2  0
 16 17  1  0
 13 17  2  0
M  END
>  <DATABASE_ID>  (1) 
DB11837

>  <DATABASE_NAME>  (1) 
drugbank

>  <SMILES>  (1) 
FC1=C(C=CC(=C1)C#N)[C@H]1CCC2=CN=CN12

>  <INCHI_IDENTIFIER>  (1) 
InChI=1S/C13H10FN3/c14-12-5-9(6-15)1-3-11(12)13-4-2-10-7-16-8-17(10)13/h1,3,5,7-8,13H,2,4H2/t13-/m1/s1

>  <INCHI_KEY>  (1) 
USUZGMWDZDXMDG-CYBMUJFWSA-N

>  <FORMULA>  (1) 
C13H10FN3

>  <MOLECULAR_WEIGHT>  (1) 
227.242

>  <EXACT_MASS>  (1) 
227.085875497

>  <JCHEM_ACCEPTOR_COUNT>  (1) 
2

>  <JCHEM_ATOM_COUNT>  (1) 
27

>  <JCHEM_AVERAGE_POLARIZABILITY>  (1) 
22.532717197444697

>  <JCHEM_BIOAVAILABILITY>  (1) 
1

>  <JCHEM_DONOR_COUNT>  (1) 
0

>  <JCHEM_FORMAL_CHARGE>  (1) 
0

>  <JCHEM_GHOSE_FILTER>  (1) 
1

>  <JCHEM_IUPAC>  (1) 
3-fluoro-4-[(5R)-5H,6H,7H-pyrrolo[1,2-c]imidazol-5-yl]benzonitrile

>  <ALOGPS_LOGP>  (1) 
2.18

>  <JCHEM_LOGP>  (1) 
2.1100410056666665

>  <ALOGPS_LOGS>  (1) 
-2.81

>  <JCHEM_MDDR_LIKE_RULE>  (1) 
0

>  <JCHEM_NUMBER_OF_RINGS>  (1) 
3

>  <JCHEM_PHYSIOLOGICAL_CHARGE>  (1) 
1

>  <JCHEM_PKA_STRONGEST_BASIC>  (1) 
7.147826327500573

>  <JCHEM_POLAR_SURFACE_AREA>  (1) 
41.61

>  <JCHEM_REFRACTIVITY>  (1) 
62.07240000000001

>  <JCHEM_ROTATABLE_BOND_COUNT>  (1) 
1

>  <JCHEM_RULE_OF_FIVE>  (1) 
1

>  <ALOGPS_SOLUBILITY>  (1) 
3.56e-01 g/l

>  <JCHEM_TRADITIONAL_IUPAC>  (1) 
3-fluoro-4-[(5R)-5H,6H,7H-pyrrolo[1,2-c]imidazol-5-yl]benzonitrile

>  <JCHEM_VEBER_RULE>  (1) 
0

>  <DRUGBANK_ID>  (1) 
DB11837

>  <DRUG_GROUPS>  (1) 
approved; investigational

>  <GENERIC_NAME>  (1) 
Osilodrostat

>  <SYNONYMS>  (1) 
Osilodrostat

>  <PRODUCTS>  (1) 
Isturisa

>  <SALTS>  (1) 
Osilodrostat phosphate

$$$$
