
     RDKit          2D

 19 20  0  0  0  0  0  0  0  0999 V2000
    2.1434   -3.7125    0.0000 C   0  0  0  0  0  0  0  0  0  0  0  0
    2.1434   -2.8875    0.0000 C   0  0  0  0  0  0  0  0  0  0  0  0
    2.8579   -2.4750    0.0000 O   0  0  0  0  0  0  0  0  0  0  0  0
    1.4289   -2.4750    0.0000 O   0  0  0  0  0  0  0  0  0  0  0  0
    1.4289   -1.6500    0.0000 C   0  0  0  0  0  0  0  0  0  0  0  0
    0.7145   -1.2375    0.0000 C   0  0  0  0  0  0  0  0  0  0  0  0
    0.7145   -0.4125    0.0000 C   0  0  0  0  0  0  0  0  0  0  0  0
    0.0000    0.0000    0.0000 C   0  0  0  0  0  0  0  0  0  0  0  0
    1.4289    0.0000    0.0000 C   0  0  0  0  0  0  0  0  0  0  0  0
    1.4289    0.8250    0.0000 O   0  0  0  0  0  0  0  0  0  0  0  0
    2.1434    1.2375    0.0000 C   0  0  0  0  0  0  0  0  0  0  0  0
    2.1434    2.0625    0.0000 C   0  0  0  0  0  0  0  0  0  0  0  0
    2.8579    0.8250    0.0000 O   0  0  0  0  0  0  0  0  0  0  0  0
    2.1434   -0.4125    0.0000 C   0  0  0  0  0  0  0  0  0  0  0  0
    2.8579    0.0000    0.0000 C   0  0  0  0  0  0  0  0  0  0  0  0
    3.5724   -0.4125    0.0000 C   0  0  0  0  0  0  0  0  0  0  0  0
    3.5724   -1.2375    0.0000 C   0  0  0  0  0  0  0  0  0  0  0  0
    2.8579   -1.6500    0.0000 C   0  0  0  0  0  0  0  0  0  0  0  0
    2.1434   -1.2375    0.0000 C   0  0  0  0  0  0  0  0  0  0  0  0
  1  2  1  0
  2  3  2  0
  2  4  1  0
  4  5  1  0
  5  6  2  0
  6  7  1  0
  7  8  1  0
  7  9  2  0
  9 10  1  0
 10 11  1  0
 11 12  1  0
 11 13  2  0
  9 14  1  0
 14 15  2  0
 15 16  1  0
 16 17  2  0
 17 18  1  0
 18 19  2  0
  5 19  1  0
 14 19  1  0
M  END
>  <DATABASE_ID>  (1) 
DB19387

>  <DATABASE_NAME>  (1) 
drugbank

>  <SMILES>  (1) 
CC(=O)OC1=CC(C)=C(OC(C)=O)C2=CC=CC=C12

>  <INCHI_IDENTIFIER>  (1) 
InChI=1S/C15H14O4/c1-9-8-14(18-10(2)16)12-6-4-5-7-13(12)15(9)19-11(3)17/h4-8H,1-3H3

>  <INCHI_KEY>  (1) 
RYWSYCQQUDFMAU-UHFFFAOYSA-N

>  <FORMULA>  (1) 
C15H14O4

>  <MOLECULAR_WEIGHT>  (1) 
258.273

>  <EXACT_MASS>  (1) 
258.089208931

>  <DRUGBANK_ID>  (1) 
DB19387

>  <DRUG_GROUPS>  (1) 
approved

>  <GENERIC_NAME>  (1) 
Acetomenaphthone

>  <SYNONYMS>  (1) 
1,4-diacetoxy-2-methylnaphthalene; 2-methyl-1,4-naphthylene diacetate; Acetomenaphthone; Acetomenaphtone; Menadiol diacetate; Vitamin K4

$$$$
