
     RDKit          2D

 10  9  0  0  0  0  0  0  0  0999 V2000
   -2.1420   -0.2066    0.0000 C   0  0  0  0  0  0  0  0  0  0  0  0
   -1.4280    0.2066    0.0000 C   0  0  0  0  0  0  0  0  0  0  0  0
   -0.7139   -0.2066    0.0000 C   0  0  0  0  0  0  0  0  0  0  0  0
    0.0000    0.2066    0.0000 N   0  0  0  0  0  0  0  0  0  0  0  0
    0.7139   -0.2066    0.0000 C   0  0  0  0  0  0  0  0  0  0  0  0
    1.4280    0.2066    0.0000 C   0  0  0  0  0  0  0  0  0  0  0  0
    2.1420   -0.2066    0.0000 O   0  0  0  0  0  0  0  0  0  0  0  0
   -1.4280    1.0334    0.0000 S   0  0  0  0  0  0  0  0  0  0  0  0
   -0.7139   -1.0334    0.0000 O   0  0  0  0  0  0  0  0  0  0  0  0
    1.4280    1.0334    0.0000 O   0  0  0  0  0  0  0  0  0  0  0  0
  2  3  1  0
  5  6  1  0
  1  2  1  0
  6  7  1  0
  3  4  1  0
  2  8  1  0
  3  9  2  0
  4  5  1  0
  6 10  2  0
M  END
>  <DATABASE_ID>  (1) 
DB06823

>  <DATABASE_NAME>  (1) 
drugbank

>  <SMILES>  (1) 
CC(S)C(=O)NCC(O)=O

>  <INCHI_IDENTIFIER>  (1) 
InChI=1S/C5H9NO3S/c1-3(10)5(9)6-2-4(7)8/h3,10H,2H2,1H3,(H,6,9)(H,7,8)

>  <INCHI_KEY>  (1) 
YTGJWQPHMWSCST-UHFFFAOYSA-N

>  <FORMULA>  (1) 
C5H9NO3S

>  <MOLECULAR_WEIGHT>  (1) 
163.19

>  <EXACT_MASS>  (1) 
163.030314328

>  <JCHEM_ACCEPTOR_COUNT>  (1) 
3

>  <JCHEM_ATOM_COUNT>  (1) 
19

>  <JCHEM_AVERAGE_NEUTRAL_MICROSPECIES_CHARGE>  (1) 
-1.0037378848135123

>  <JCHEM_AVERAGE_POLARIZABILITY>  (1) 
15.307082482612708

>  <JCHEM_BIOAVAILABILITY>  (1) 
1

>  <JCHEM_DONOR_COUNT>  (1) 
3

>  <JCHEM_FORMAL_CHARGE>  (1) 
0

>  <JCHEM_GHOSE_FILTER>  (1) 
0

>  <JCHEM_IUPAC>  (1) 
2-(2-sulfanylpropanamido)acetic acid

>  <JCHEM_LOGP>  (1) 
-0.5332992903333332

>  <JCHEM_MDDR_LIKE_RULE>  (1) 
0

>  <JCHEM_NEUTRAL_CHARGE>  (1) 
-1

>  <JCHEM_NUMBER_OF_RINGS>  (1) 
0

>  <JCHEM_PHYSIOLOGICAL_CHARGE>  (1) 
-1

>  <JCHEM_PKA>  (1) 
9.34778337094707

>  <JCHEM_PKA_STRONGEST_ACIDIC>  (1) 
3.86468456685411

>  <JCHEM_PKA_STRONGEST_BASIC>  (1) 
-4.159857268852209

>  <JCHEM_POLAR_SURFACE_AREA>  (1) 
66.4

>  <JCHEM_REFRACTIVITY>  (1) 
37.770300000000006

>  <JCHEM_ROTATABLE_BOND_COUNT>  (1) 
3

>  <JCHEM_RULE_OF_FIVE>  (1) 
1

>  <JCHEM_TRADITIONAL_IUPAC>  (1) 
(2S)-2-({4-[(2E)-N-({2-amino-4-oxo-1H-pyrido[3,2-d]pyrimidin-6-yl}methyl)-3-{5-carbamoyl-3-[(2R,3R,4S,5R)-3,4-dihydroxy-5-[(phosphonooxy)methyl]oxolan-2-yl]imidazol-4-yl}prop-2-enamido]phenyl}formamido)pentanedioic acid

>  <JCHEM_VEBER_RULE>  (1) 
0

>  <DRUGBANK_ID>  (1) 
DB06823

>  <DRUG_GROUPS>  (1) 
approved

>  <GENERIC_NAME>  (1) 
Tiopronin

>  <SYNONYMS>  (1) 
Tiopronin; Tiopronine; Tiopronino; Tioproninum

>  <PRODUCTS>  (1) 
Thiola; Thiola EC; Tiopronin; Venxxiva

>  <INTERNATIONAL_BRANDS>  (1) 
Acadione; Capen; Captimer ; Epatiol; Kai Na; Mucosyt; Sutilan; Thiola; Vincol

$$$$
