
     RDKit          2D

 16 15  0  0  1  0  0  0  0  0999 V2000
    1.6500   -2.8579    0.0000 C   0  0  0  0  0  0  0  0  0  0  0  0
    1.2375   -2.1434    0.0000 S   0  0  0  0  0  0  0  0  0  0  0  0
    1.9520   -1.7309    0.0000 O   0  0  0  0  0  0  0  0  0  0  0  0
    0.5230   -2.5559    0.0000 O   0  0  0  0  0  0  0  0  0  0  0  0
    0.8250   -1.4289    0.0000 O   0  0  0  0  0  0  0  0  0  0  0  0
    1.2375   -0.7145    0.0000 C   0  0  0  0  0  0  0  0  0  0  0  0
    0.8250    0.0000    0.0000 C   0  0  0  0  0  0  0  0  0  0  0  0
    1.2375    0.7145    0.0000 C   0  0  0  0  0  0  0  0  0  0  0  0
    0.8250    1.4289    0.0000 C   0  0  0  0  0  0  0  0  0  0  0  0
    1.2375    2.1434    0.0000 O   0  0  0  0  0  0  0  0  0  0  0  0
    0.8250    2.8579    0.0000 S   0  0  0  0  0  0  0  0  0  0  0  0
    0.4125    3.5724    0.0000 O   0  0  0  0  0  0  0  0  0  0  0  0
    1.5395    3.2704    0.0000 O   0  0  0  0  0  0  0  0  0  0  0  0
    0.1105    2.4454    0.0000 C   0  0  0  0  0  0  0  0  0  0  0  0
    2.0625    0.7145    0.0000 O   0  0  0  0  0  0  0  0  0  0  0  0
    0.0000    0.0000    0.0000 O   0  0  0  0  0  0  0  0  0  0  0  0
  1  2  1  0
  2  3  2  0
  2  4  2  0
  2  5  1  0
  5  6  1  0
  6  7  1  0
  7  8  1  0
  8  9  1  0
  9 10  1  0
 10 11  1  0
 11 12  2  0
 11 13  2  0
 11 14  1  0
  8 15  1  6
  7 16  1  6
M  END
>  <DATABASE_ID>  (1) 
DB11678

>  <DATABASE_NAME>  (1) 
drugbank

>  <SMILES>  (1) 
CS(=O)(=O)OC[C@H](O)[C@@H](O)COS(C)(=O)=O

>  <INCHI_IDENTIFIER>  (1) 
InChI=1S/C6H14O8S2/c1-15(9,10)13-3-5(7)6(8)4-14-16(2,11)12/h5-8H,3-4H2,1-2H3/t5-,6-/m0/s1

>  <INCHI_KEY>  (1) 
YCPOZVAOBBQLRI-WDSKDSINSA-N

>  <FORMULA>  (1) 
C6H14O8S2

>  <MOLECULAR_WEIGHT>  (1) 
278.29

>  <EXACT_MASS>  (1) 
278.013009759

>  <JCHEM_ACCEPTOR_COUNT>  (1) 
6

>  <JCHEM_ATOM_COUNT>  (1) 
30

>  <JCHEM_AVERAGE_POLARIZABILITY>  (1) 
24.928094015033032

>  <JCHEM_BIOAVAILABILITY>  (1) 
1

>  <JCHEM_DONOR_COUNT>  (1) 
2

>  <JCHEM_FORMAL_CHARGE>  (1) 
0

>  <JCHEM_GHOSE_FILTER>  (1) 
0

>  <JCHEM_IUPAC>  (1) 
(2S,3S)-2,3-dihydroxy-4-(methanesulfonyloxy)butyl methanesulfonate

>  <ALOGPS_LOGP>  (1) 
-1.53

>  <JCHEM_LOGP>  (1) 
-2.5970205199999996

>  <ALOGPS_LOGS>  (1) 
-1.21

>  <JCHEM_MDDR_LIKE_RULE>  (1) 
0

>  <JCHEM_NUMBER_OF_RINGS>  (1) 
0

>  <JCHEM_PHYSIOLOGICAL_CHARGE>  (1) 
0

>  <JCHEM_PKA>  (1) 
14.42764061572851

>  <JCHEM_PKA_STRONGEST_ACIDIC>  (1) 
12.989807576484225

>  <JCHEM_PKA_STRONGEST_BASIC>  (1) 
-3.5463876459423735

>  <JCHEM_POLAR_SURFACE_AREA>  (1) 
127.20000000000002

>  <JCHEM_REFRACTIVITY>  (1) 
51.983599999999996

>  <JCHEM_ROTATABLE_BOND_COUNT>  (1) 
7

>  <JCHEM_RULE_OF_FIVE>  (1) 
1

>  <ALOGPS_SOLUBILITY>  (1) 
1.70e+01 g/l

>  <JCHEM_TRADITIONAL_IUPAC>  (1) 
treosulphan

>  <JCHEM_VEBER_RULE>  (1) 
0

>  <DRUGBANK_ID>  (1) 
DB11678

>  <DRUG_GROUPS>  (1) 
approved; investigational

>  <GENERIC_NAME>  (1) 
Treosulfan

>  <SYNONYMS>  (1) 
Dihydroxybusulfan; L-threitol-1,4-dimethanesulfonate; Ovastat; Treosulfan

>  <PRODUCTS>  (1) 
Grafapex; Trecondi; Trecondyv

$$$$
