824
     RDKit          2D

 14 15  0  0  0  0  0  0  0  0999 V2000
    1.6500   -0.2063    0.0000 O   0  0  0  0  0  0  0  0  0  0  0  0
    3.0791    2.2688    0.0000 O   0  0  0  0  0  0  0  0  0  0  0  0
    3.0791   -0.2063    0.0000 N   0  0  0  0  0  0  0  0  0  0  0  0
    2.3645    1.0313    0.0000 N   0  0  0  0  0  0  0  0  0  0  0  0
    4.5741    1.2827    0.0000 N   0  0  0  0  0  0  0  0  0  0  0  0
    4.5741   -0.0451    0.0000 N   0  0  0  0  0  0  0  0  0  0  0  0
    3.0791   -1.0313    0.0000 C   0  0  0  0  0  0  0  0  0  0  0  0
    3.7935    0.2063    0.0000 C   0  0  0  0  0  0  0  0  0  0  0  0
    2.3645   -1.4438    0.0000 C   0  0  0  0  0  0  0  0  0  0  0  0
    3.7935    1.0313    0.0000 C   0  0  0  0  0  0  0  0  0  0  0  0
    2.3645    0.2063    0.0000 C   0  0  0  0  0  0  0  0  0  0  0  0
    3.0791    1.4438    0.0000 C   0  0  0  0  0  0  0  0  0  0  0  0
    2.3645   -2.2688    0.0000 C   0  0  0  0  0  0  0  0  0  0  0  0
    5.0556    0.6188    0.0000 C   0  0  0  0  0  0  0  0  0  0  0  0
  1 11  2  0
  2 12  2  0
  3  7  1  0
  3  8  1  0
  3 11  1  0
  4 11  1  0
  4 12  1  0
  5 10  1  0
  5 14  1  0
  6  8  1  0
  6 14  2  0
  7  9  1  0
  8 10  2  0
  9 13  1  0
 10 12  1  0
M  END
>  <DATABASE_ID>  (1) 
DB00824

>  <DATABASE_NAME>  (1) 
drugbank

>  <SMILES>  (1) 
CCCN1C2=C(NC=N2)C(=O)NC1=O

>  <INCHI_IDENTIFIER>  (1) 
InChI=1S/C8H10N4O2/c1-2-3-12-6-5(9-4-10-6)7(13)11-8(12)14/h4H,2-3H2,1H3,(H,9,10)(H,11,13,14)

>  <INCHI_KEY>  (1) 
SIQPXVQCUCHWDI-UHFFFAOYSA-N

>  <FORMULA>  (1) 
C8H10N4O2

>  <MOLECULAR_WEIGHT>  (1) 
194.1906

>  <EXACT_MASS>  (1) 
194.080375584

>  <JCHEM_ACCEPTOR_COUNT>  (1) 
3

>  <JCHEM_ATOM_COUNT>  (1) 
24

>  <JCHEM_AVERAGE_NEUTRAL_MICROSPECIES_CHARGE>  (1) 
-0.12829660424253944

>  <JCHEM_AVERAGE_POLARIZABILITY>  (1) 
18.715866447566768

>  <JCHEM_BIOAVAILABILITY>  (1) 
1

>  <JCHEM_DONOR_COUNT>  (1) 
2

>  <JCHEM_FORMAL_CHARGE>  (1) 
0

>  <JCHEM_GHOSE_FILTER>  (1) 
1

>  <JCHEM_IUPAC>  (1) 
3-propyl-2,3,6,7-tetrahydro-1H-purine-2,6-dione

>  <ALOGPS_LOGP>  (1) 
0.35

>  <JCHEM_LOGP>  (1) 
-0.11366737333333343

>  <ALOGPS_LOGS>  (1) 
-1.53

>  <JCHEM_MDDR_LIKE_RULE>  (1) 
0

>  <JCHEM_NEUTRAL_CHARGE>  (1) 
0

>  <JCHEM_NUMBER_OF_RINGS>  (1) 
2

>  <JCHEM_PHYSIOLOGICAL_CHARGE>  (1) 
0

>  <JCHEM_PKA>  (1) 
10.887268290679575

>  <JCHEM_PKA_STRONGEST_ACIDIC>  (1) 
7.8326588265000625

>  <JCHEM_PKA_STRONGEST_BASIC>  (1) 
-0.766898519698848

>  <JCHEM_POLAR_SURFACE_AREA>  (1) 
78.09

>  <JCHEM_REFRACTIVITY>  (1) 
49.310399999999994

>  <JCHEM_ROTATABLE_BOND_COUNT>  (1) 
2

>  <JCHEM_RULE_OF_FIVE>  (1) 
1

>  <ALOGPS_SOLUBILITY>  (1) 
5.68e+00 g/l

>  <JCHEM_TRADITIONAL_IUPAC>  (1) 
tetrahydrofolic acid

>  <JCHEM_VEBER_RULE>  (1) 
0

>  <DRUGBANK_ID>  (1) 
DB00824

>  <SECONDARY_ACCESSION_NUMBERS>  (1) 
APRD00273

>  <DRUG_GROUPS>  (1) 
approved; withdrawn

>  <GENERIC_NAME>  (1) 
Enprofylline

>  <SYNONYMS>  (1) 
3-n-propylxanthine; 3-Propyl-3,7-dihydro-purine-2,6-dione; 3-propylxanthine; 3,7-dihydro-3-propyl-1H-purine-2,6-dione; Enprofilina; Enprofylline; Enprofyllinum

>  <INTERNATIONAL_BRANDS>  (1) 
Nilyph; Oxeze

$$$$
