
     RDKit          2D

  3  0  0  0  0  0  0  0  0  0999 V2000
   -0.4125    0.0000    0.0000 Co  0  0  0  0  0 15  0  0  0  0  0  0
    0.4125   -0.8250    0.0000 Cl  0  0  0  0  0  0  0  0  0  0  0  0
    0.4125    0.8250    0.0000 Cl  0  0  0  0  0  0  0  0  0  0  0  0
M  CHG  3   1   2   2  -1   3  -1
M  END
>  <DATABASE_ID>  (1) 
DB14206

>  <DATABASE_NAME>  (1) 
drugbank

>  <SMILES>  (1) 
[Cl-].[Cl-].[Co++]

>  <INCHI_IDENTIFIER>  (1) 
InChI=1S/2ClH.Co/h2*1H;/q;;+2/p-2

>  <INCHI_KEY>  (1) 
GVPFVAHMJGGAJG-UHFFFAOYSA-L

>  <FORMULA>  (1) 
Cl2Co

>  <MOLECULAR_WEIGHT>  (1) 
129.839

>  <EXACT_MASS>  (1) 
128.870905608

>  <JCHEM_ACCEPTOR_COUNT>  (1) 
0

>  <JCHEM_ATOM_COUNT>  (1) 
3

>  <JCHEM_AVERAGE_POLARIZABILITY>  (1) 
2.3881688999999993

>  <JCHEM_BIOAVAILABILITY>  (1) 
1

>  <JCHEM_DONOR_COUNT>  (1) 
0

>  <JCHEM_FORMAL_CHARGE>  (1) 
0

>  <JCHEM_GHOSE_FILTER>  (1) 
0

>  <JCHEM_IUPAC>  (1) 
lambda2-cobalt(2+) dichloride

>  <ALOGPS_LOGP>  (1) 
0.95

>  <JCHEM_LOGP>  (1) 
0.6123387216666667

>  <ALOGPS_LOGS>  (1) 
-0.57

>  <JCHEM_MDDR_LIKE_RULE>  (1) 
0

>  <JCHEM_NUMBER_OF_RINGS>  (1) 
0

>  <JCHEM_PHYSIOLOGICAL_CHARGE>  (1) 
-1

>  <JCHEM_PKA_STRONGEST_ACIDIC>  (1) 
-7.000000000000001

>  <JCHEM_POLAR_SURFACE_AREA>  (1) 
0.0

>  <JCHEM_REFRACTIVITY>  (1) 
5.6156

>  <JCHEM_ROTATABLE_BOND_COUNT>  (1) 
0

>  <JCHEM_RULE_OF_FIVE>  (1) 
1

>  <ALOGPS_SOLUBILITY>  (1) 
3.53e+01 g/l

>  <JCHEM_TRADITIONAL_IUPAC>  (1) 
lambda2-cobalt(2+) dichloride

>  <JCHEM_VEBER_RULE>  (1) 
1

>  <DRUGBANK_ID>  (1) 
DB14206

>  <DRUG_GROUPS>  (1) 
approved

>  <GENERIC_NAME>  (1) 
Cobalt chloride

>  <SYNONYMS>  (1) 
Cobalt chloride; Cobalt dichloride; cobalt muriate; cobalt(2+) chloride; Cobalt(II) chloride; cobaltous chloride; cobaltous chloride anhydrous; cobaltous dichloride; dichlorocobalt; Kobalt chlori; Kobalt(II)-chlorid; Kobaltdichlorid

>  <PRODUCTS>  (1) 
Ceretec; T.R.U.E. Test Thin-Layer Rapid Use Patch Test

>  <SALTS>  (1) 
Cobalt chloride hexahydrate

$$$$
