3783
     RDKit          2D

 13 13  0  0  0  0  0  0  0  0999 V2000
    2.3644   -1.6500    0.0000 O   0  0  0  0  0  0  0  0  0  0  0  0
    3.7934    1.6500    0.0000 O   0  0  0  0  0  0  0  0  0  0  0  0
    2.3644    1.6500    0.0000 N   0  0  0  0  0  0  0  0  0  0  0  0
    2.3644    0.8250    0.0000 C   0  0  0  0  0  0  0  0  0  0  0  0
    2.3644   -0.8250    0.0000 C   0  0  0  0  0  0  0  0  0  0  0  0
    3.0790    0.4125    0.0000 C   0  0  0  0  0  0  0  0  0  0  0  0
    1.6500    0.4125    0.0000 C   0  0  0  0  0  0  0  0  0  0  0  0
    3.0790   -0.4125    0.0000 C   0  0  0  0  0  0  0  0  0  0  0  0
    1.6500   -0.4125    0.0000 C   0  0  0  0  0  0  0  0  0  0  0  0
    1.6500   -2.0625    0.0000 C   0  0  0  0  0  0  0  0  0  0  0  0
    1.6500   -2.8875    0.0000 C   0  0  0  0  0  0  0  0  0  0  0  0
    3.0790    2.0625    0.0000 C   0  0  0  0  0  0  0  0  0  0  0  0
    3.0790    2.8875    0.0000 C   0  0  0  0  0  0  0  0  0  0  0  0
  1  5  1  0
  1 10  1  0
  2 12  2  0
  3  4  1  0
  3 12  1  0
  4  6  2  0
  4  7  1  0
  5  8  2  0
  5  9  1  0
  6  8  1  0
  7  9  2  0
 10 11  1  0
 12 13  1  0
M  END
>  <DATABASE_ID>  (1) 
DB03783

>  <DATABASE_NAME>  (1) 
drugbank

>  <SMILES>  (1) 
CCOC1=CC=C(NC(C)=O)C=C1

>  <INCHI_IDENTIFIER>  (1) 
InChI=1S/C10H13NO2/c1-3-13-10-6-4-9(5-7-10)11-8(2)12/h4-7H,3H2,1-2H3,(H,11,12)

>  <INCHI_KEY>  (1) 
CPJSUEIXXCENMM-UHFFFAOYSA-N

>  <FORMULA>  (1) 
C10H13NO2

>  <MOLECULAR_WEIGHT>  (1) 
179.2157

>  <EXACT_MASS>  (1) 
179.094628665

>  <JCHEM_ACCEPTOR_COUNT>  (1) 
2

>  <JCHEM_ATOM_COUNT>  (1) 
26

>  <JCHEM_AVERAGE_NEUTRAL_MICROSPECIES_CHARGE>  (1) 
-1.0488955411279557e-08

>  <JCHEM_AVERAGE_POLARIZABILITY>  (1) 
19.820611782174087

>  <JCHEM_BIOAVAILABILITY>  (1) 
1

>  <JCHEM_DONOR_COUNT>  (1) 
1

>  <JCHEM_FORMAL_CHARGE>  (1) 
0

>  <JCHEM_GHOSE_FILTER>  (1) 
1

>  <JCHEM_IUPAC>  (1) 
N-(4-ethoxyphenyl)acetamide

>  <ALOGPS_LOGP>  (1) 
1.62

>  <JCHEM_LOGP>  (1) 
1.4100928723333332

>  <ALOGPS_LOGS>  (1) 
-2.00

>  <JCHEM_MDDR_LIKE_RULE>  (1) 
0

>  <JCHEM_NEUTRAL_CHARGE>  (1) 
0

>  <JCHEM_NUMBER_OF_RINGS>  (1) 
1

>  <JCHEM_PHYSIOLOGICAL_CHARGE>  (1) 
0

>  <JCHEM_PKA_STRONGEST_ACIDIC>  (1) 
14.978986347794306

>  <JCHEM_PKA_STRONGEST_BASIC>  (1) 
-4.237178123843566

>  <JCHEM_POLAR_SURFACE_AREA>  (1) 
38.33

>  <JCHEM_REFRACTIVITY>  (1) 
52.1328

>  <JCHEM_ROTATABLE_BOND_COUNT>  (1) 
3

>  <JCHEM_RULE_OF_FIVE>  (1) 
1

>  <ALOGPS_SOLUBILITY>  (1) 
1.78e+00 g/l

>  <JCHEM_TRADITIONAL_IUPAC>  (1) 
tetrahydrofolic acid

>  <JCHEM_VEBER_RULE>  (1) 
1

>  <DRUGBANK_ID>  (1) 
DB03783

>  <SECONDARY_ACCESSION_NUMBERS>  (1) 
EXPT03306; DB08243

>  <DRUG_GROUPS>  (1) 
approved; withdrawn

>  <GENERIC_NAME>  (1) 
Phenacetin

>  <SYNONYMS>  (1) 
Acetophenetidin; Acetophenetidine; Acetophenetin; Acetphenetidin; Fenacetina; Phenacetin

>  <INTERNATIONAL_BRANDS>  (1) 
Achrocidin; Codempiral; Commotional; Contradol; Contradouleur

$$$$
