
     RDKit          2D

  0  0  0  0  0  0  0  0  0  0999 V3000
M  V30 BEGIN CTAB
M  V30 COUNTS 19 21 0 0 0
M  V30 BEGIN ATOM
M  V30 1 C 1.786900 -0.825000 0.000000 0
M  V30 2 C 1.786900 0.825000 0.000000 0
M  V30 3 C 2.501300 0.412500 0.000000 0
M  V30 4 C 2.501300 -0.412500 0.000000 0
M  V30 5 C 1.072400 0.412500 0.000000 0
M  V30 6 C 1.072400 -0.412500 0.000000 0
M  V30 7 H 0.276000 -1.492400 0.000000 0
M  V30 8 N 0.287800 -0.667400 0.000000 0
M  V30 9 H -0.187600 -1.341600 0.000000 0
M  V30 10 H -0.187600 1.341600 0.000000 0
M  V30 11 N 0.287800 0.667400 0.000000 0
M  V30 12 H 0.276000 1.492400 0.000000 0
M  V30 13 C -1.787000 0.412400 0.000000 0
M  V30 14 C -1.787000 -0.412500 0.000000 0
M  V30 15 Pt -0.357300 0.000000 0.000000 0 VAL=4
M  V30 16 O -1.002400 0.667300 0.000000 0
M  V30 17 O -1.002400 -0.667400 0.000000 0
M  V30 18 O -2.501400 -0.825000 0.000000 0
M  V30 19 O -2.501400 0.824900 0.000000 0
M  V30 END ATOM
M  V30 BEGIN BOND
M  V30 1 1 1 6
M  V30 2 1 1 4
M  V30 3 1 5 2
M  V30 4 1 2 3
M  V30 5 1 3 4
M  V30 6 1 5 11 CFG=3
M  V30 7 1 5 6
M  V30 8 1 6 8 CFG=1
M  V30 9 9 8 15
M  V30 10 9 11 15
M  V30 11 1 8 7
M  V30 12 1 8 9
M  V30 13 1 11 10
M  V30 14 1 11 12
M  V30 15 2 18 14
M  V30 16 2 13 19
M  V30 17 1 13 16
M  V30 18 1 13 14
M  V30 19 1 14 17
M  V30 20 1 17 15
M  V30 21 1 15 16
M  V30 END BOND
M  V30 END CTAB
M  END
>  <DATABASE_ID>  (1) 
DB00526

>  <DATABASE_NAME>  (1) 
drugbank

>  <SMILES>  (1) 
[H][N]1([H])[C@@H]2CCCC[C@H]2[N]([H])([H])[Pt]11OC(=O)C(=O)O1

>  <INCHI_IDENTIFIER>  (1) 
InChI=1S/C6H14N2.C2H2O4.Pt/c7-5-3-1-2-4-6(5)8;3-1(4)2(5)6;/h5-6H,1-4,7-8H2;(H,3,4)(H,5,6);/q;;+2/p-2/t5-,6-;;/m1../s1

>  <INCHI_KEY>  (1) 
ZROHGHOFXNOHSO-BNTLRKBRSA-L

>  <FORMULA>  (1) 
C8H14N2O4Pt

>  <MOLECULAR_WEIGHT>  (1) 
397.294

>  <EXACT_MASS>  (1) 
397.060149

>  <JCHEM_ACCEPTOR_COUNT>  (1) 
0

>  <JCHEM_ATOM_COUNT>  (1) 
29

>  <JCHEM_AVERAGE_POLARIZABILITY>  (1) 
21.897307064487705

>  <JCHEM_BIOAVAILABILITY>  (1) 
1

>  <JCHEM_DONOR_COUNT>  (1) 
0

>  <JCHEM_FORMAL_CHARGE>  (1) 
0

>  <JCHEM_GHOSE_FILTER>  (1) 
0

>  <JCHEM_IUPAC>  (1) 
(3aR,7aR)-octahydro-2',5'-dioxaspiro[cyclohexa[d]1,3-diaza-2-platinacyclopentane-2,1'-cyclopentane]-3',4'-dione

>  <ALOGPS_LOGP>  (1) 
-0.47

>  <ALOGPS_LOGS>  (1) 
-1.16

>  <JCHEM_MDDR_LIKE_RULE>  (1) 
0

>  <JCHEM_NUMBER_OF_RINGS>  (1) 
3

>  <JCHEM_PHYSIOLOGICAL_CHARGE>  (1) 
0

>  <JCHEM_POLAR_SURFACE_AREA>  (1) 
85.82

>  <JCHEM_REFRACTIVITY>  (1) 
67.521

>  <JCHEM_ROTATABLE_BOND_COUNT>  (1) 
0

>  <JCHEM_RULE_OF_FIVE>  (1) 
0

>  <ALOGPS_SOLUBILITY>  (1) 
2.75e+01 g/l

>  <JCHEM_TRADITIONAL_IUPAC>  (1) 
oxaliplatin

>  <JCHEM_VEBER_RULE>  (1) 
0

>  <DRUGBANK_ID>  (1) 
DB00526

>  <SECONDARY_ACCESSION_NUMBERS>  (1) 
APRD00186

>  <DRUG_GROUPS>  (1) 
approved; investigational

>  <GENERIC_NAME>  (1) 
Oxaliplatin

>  <SYNONYMS>  (1) 
(SP-4-2-(1R-TRANS))-(1,2-CYCLOHEXANEDIAMINE-N,N')(ETHANEDIOATO(2-)-O,O')PLATINUM; Diaminocyclohexane Oxalatoplatinum; L-OHP; LOHP; Oxalatoplatin; Oxalatoplatinum; Oxaliplatin; oxaliplatine; oxaliplatino; oxaliplatinum; PLATINUM, ((1R,2R)-1,2-CYCLOHEXANEDIAMINE-.KAPPA.N,.KAPPA.N')(ETHANEDIOATO(2-)-.KAPPA.O1,.KAPPA.O2)-, (SP-4-2)-; Xaliplatin

>  <PRODUCTS>  (1) 
Act Oxaliplatin; Eloxatin; Oxaliplatin; Oxaliplatin Injection; Oxaliplatin Injection USP; Oxaliplatin Injection, USP; Oxaliplatin for Injection; PMS-oxaliplatin; Taro-oxaliplatin; Teva-oxaliplatin Injection

$$$$
