
     RDKit          2D

  7  6  0  0  0  0  0  0  0  0999 V2000
   -0.7251   -0.1875    0.0000 N   0  0  0  0  0  0  0  0  0  0  0  0
    1.4394   -0.4867    0.0000 O   0  0  0  0  0  0  0  0  0  0  0  0
    0.0102   -0.5615    0.0000 C   0  0  0  0  0  0  0  0  0  0  0  0
    0.7081   -0.1128    0.0000 C   0  0  0  0  0  0  0  0  0  0  0  0
   -1.4165   -0.6375    0.0000 C   0  0  0  0  0  0  0  0  0  0  0  0
   -1.4394    0.2249    0.0000 C   0  0  0  0  0  0  0  0  0  0  0  0
   -0.7251    0.6375    0.0000 C   0  0  0  0  0  0  0  0  0  0  0  0
  2  4  1  0
  3  1  1  0
  4  3  1  0
  1  5  1  0
  1  6  1  0
  1  7  1  0
M  CHG  1   1   1
M  ISO  1   7  11
M  END
>  <DATABASE_ID>  (1) 
DB09563

>  <DATABASE_NAME>  (1) 
drugbank

>  <SMILES>  (1) 
C[N+](C)([11CH3])CCO

>  <INCHI_IDENTIFIER>  (1) 
InChI=1S/C5H14NO/c1-6(2,3)4-5-7/h7H,4-5H2,1-3H3/q+1/i1-1

>  <INCHI_KEY>  (1) 
OEYIOHPDSNJKLS-BJUDXGSMSA-N

>  <FORMULA>  (1) 
C5H14NO

>  <MOLECULAR_WEIGHT>  (1) 
103.173

>  <EXACT_MASS>  (1) 
103.118424313

>  <JCHEM_ACCEPTOR_COUNT>  (1) 
1

>  <JCHEM_ATOM_COUNT>  (1) 
21

>  <JCHEM_AVERAGE_NEUTRAL_MICROSPECIES_CHARGE>  (1) 
1.0005621747289248

>  <JCHEM_AVERAGE_POLARIZABILITY>  (1) 
12.565613058013373

>  <JCHEM_BIOAVAILABILITY>  (1) 
1

>  <JCHEM_DONOR_COUNT>  (1) 
1

>  <JCHEM_FORMAL_CHARGE>  (1) 
1

>  <JCHEM_GHOSE_FILTER>  (1) 
0

>  <JCHEM_IUPAC>  (1) 
(2-hydroxyethyl)((11C)methyl)dimethylazanium

>  <ALOGPS_LOGP>  (1) 
-3.59

>  <JCHEM_LOGP>  (1) 
-4.662269162805079

>  <ALOGPS_LOGS>  (1) 
-1.59

>  <JCHEM_MDDR_LIKE_RULE>  (1) 
0

>  <JCHEM_NEUTRAL_CHARGE>  (1) 
1

>  <JCHEM_NUMBER_OF_RINGS>  (1) 
0

>  <JCHEM_PHYSIOLOGICAL_CHARGE>  (1) 
1

>  <JCHEM_PKA_STRONGEST_ACIDIC>  (1) 
13.968714076810004

>  <JCHEM_PKA_STRONGEST_BASIC>  (1) 
-3.2498844628033043

>  <JCHEM_POLAR_SURFACE_AREA>  (1) 
20.23

>  <JCHEM_REFRACTIVITY>  (1) 
42.193999999999996

>  <JCHEM_ROTATABLE_BOND_COUNT>  (1) 
2

>  <JCHEM_RULE_OF_FIVE>  (1) 
1

>  <ALOGPS_SOLUBILITY>  (1) 
3.61e+00 g/l

>  <JCHEM_TRADITIONAL_IUPAC>  (1) 
(2-hydroxyethyl)((11C)methyl)dimethylazanium

>  <JCHEM_VEBER_RULE>  (1) 
1

>  <DRUGBANK_ID>  (1) 
DB09563

>  <DRUG_GROUPS>  (1) 
approved

>  <GENERIC_NAME>  (1) 
Choline C-11

>  <SYNONYMS>  (1) 
(11)C-choline; Choline C-11; Choline C11

>  <PRODUCTS>  (1) 
Choline C 11; Mic B12

$$$$
