
     RDKit          2D

 16 17  0  0  0  0  0  0  0  0999 V2000
   -0.0014   -0.4097    0.0000 C   0  0  0  0  0  0  0  0  0  0  0  0
   -0.0014    0.4158    0.0000 N   0  0  0  0  0  0  0  0  0  0  0  0
    0.7120   -0.8199    0.0000 N   0  0  0  0  0  0  0  0  0  0  0  0
   -0.7149   -0.8250    0.0000 N   0  0  0  0  0  0  0  0  0  0  0  0
   -2.1418    0.8210    0.0000 C   0  0  0  0  0  0  0  0  0  0  0  0
   -2.8553    0.4058    0.0000 C   0  0  0  0  0  0  0  0  0  0  0  0
   -2.8553   -0.4198    0.0000 C   0  0  0  0  0  0  0  0  0  0  0  0
   -2.1418   -0.8300    0.0000 C   0  0  0  0  0  0  0  0  0  0  0  0
   -1.4284   -0.4148    0.0000 C   0  0  0  0  0  0  0  0  0  0  0  0
   -1.4284    0.4108    0.0000 C   0  0  0  0  0  0  0  0  0  0  0  0
    1.4265   -0.4074    0.0000 C   0  0  0  0  0  0  0  0  0  0  0  0
    1.4265    0.4175    0.0000 C   0  0  0  0  0  0  0  0  0  0  0  0
    2.1409    0.8300    0.0000 C   0  0  0  0  0  0  0  0  0  0  0  0
    2.8553    0.4175    0.0000 C   0  0  0  0  0  0  0  0  0  0  0  0
    2.8553   -0.4074    0.0000 C   0  0  0  0  0  0  0  0  0  0  0  0
    2.1409   -0.8199    0.0000 C   0  0  0  0  0  0  0  0  0  0  0  0
  2  1  2  0
  3  1  1  0
  4  1  1  0
  9  4  1  0
 10  5  2  0
  6  5  1  0
  7  6  2  0
  8  7  1  0
  9  8  2  0
 10  9  1  0
  3 11  1  0
 11 12  2  0
 12 13  1  0
 13 14  2  0
 14 15  1  0
 15 16  2  0
 16 11  1  0
M  END
>  <DATABASE_ID>  (1) 
DB14191

>  <DATABASE_NAME>  (1) 
drugbank

>  <SMILES>  (1) 
N=C(NC1=CC=CC=C1)NC1=CC=CC=C1

>  <INCHI_IDENTIFIER>  (1) 
InChI=1S/C13H13N3/c14-13(15-11-7-3-1-4-8-11)16-12-9-5-2-6-10-12/h1-10H,(H3,14,15,16)

>  <INCHI_KEY>  (1) 
OWRCNXZUPFZXOS-UHFFFAOYSA-N

>  <FORMULA>  (1) 
C13H13N3

>  <MOLECULAR_WEIGHT>  (1) 
211.268

>  <EXACT_MASS>  (1) 
211.110947431

>  <JCHEM_ACCEPTOR_COUNT>  (1) 
3

>  <JCHEM_ATOM_COUNT>  (1) 
29

>  <JCHEM_AVERAGE_POLARIZABILITY>  (1) 
23.317397202030982

>  <JCHEM_BIOAVAILABILITY>  (1) 
1

>  <JCHEM_DONOR_COUNT>  (1) 
3

>  <JCHEM_FORMAL_CHARGE>  (1) 
0

>  <JCHEM_GHOSE_FILTER>  (1) 
1

>  <JCHEM_IUPAC>  (1) 
N,N'-diphenylguanidine

>  <ALOGPS_LOGP>  (1) 
2.67

>  <JCHEM_LOGP>  (1) 
3.131316674333333

>  <ALOGPS_LOGS>  (1) 
-2.75

>  <JCHEM_MDDR_LIKE_RULE>  (1) 
0

>  <JCHEM_NUMBER_OF_RINGS>  (1) 
2

>  <JCHEM_PHYSIOLOGICAL_CHARGE>  (1) 
1

>  <JCHEM_PKA_STRONGEST_BASIC>  (1) 
9.38482849979505

>  <JCHEM_POLAR_SURFACE_AREA>  (1) 
47.910000000000004

>  <JCHEM_REFRACTIVITY>  (1) 
78.52480000000001

>  <JCHEM_ROTATABLE_BOND_COUNT>  (1) 
2

>  <JCHEM_RULE_OF_FIVE>  (1) 
1

>  <ALOGPS_SOLUBILITY>  (1) 
3.77e-01 g/l

>  <JCHEM_TRADITIONAL_IUPAC>  (1) 
topramezone

>  <JCHEM_VEBER_RULE>  (1) 
0

>  <DRUGBANK_ID>  (1) 
DB14191

>  <DRUG_GROUPS>  (1) 
approved

>  <GENERIC_NAME>  (1) 
Diphenylguanidine

>  <SYNONYMS>  (1) 
1,3-diphenylguanidine; Diphenylguanidine; DPG; DPG vulcanizer; Melaniline; N,N'-diphenylguanidine; s-Diphenylguanidine

>  <PRODUCTS>  (1) 
T.R.U.E. Test Thin-Layer Rapid Use Patch Test

>  <INTERNATIONAL_BRANDS>  (1) 
Nocceler D; Soxinol D; Vulcacid D; Vulkazit

>  <SALTS>  (1) 
Diphenylguanidine monohydrobromide

$$$$
