
     RDKit          2D

 37 41  0  0  0  0  0  0  0  0999 V2000
   -0.7577   -1.9837    0.0000 C   0  0  0  0  0  0  0  0  0  0  0  0
   -0.7577   -1.1587    0.0000 C   0  0  0  0  0  0  0  0  0  0  0  0
   -2.1867   -1.9837    0.0000 C   0  0  0  0  0  0  0  0  0  0  0  0
   -1.4722   -2.3962    0.0000 C   0  0  0  0  0  0  0  0  0  0  0  0
   -1.4722   -0.7462    0.0000 C   0  0  0  0  0  0  0  0  0  0  0  0
   -2.1867   -1.1587    0.0000 C   0  0  0  0  0  0  0  0  0  0  0  0
   -3.6156   -1.1587    0.0000 C   0  0  0  0  0  0  0  0  0  0  0  0
   -3.6156   -1.9837    0.0000 C   0  0  0  0  0  0  0  0  0  0  0  0
   -2.9011   -2.3962    0.0000 C   0  0  0  0  0  0  0  0  0  0  0  0
   -2.9011   -0.7462    0.0000 C   0  0  0  0  0  0  0  0  0  0  0  0
   -0.7577    0.4913    0.0000 C   0  0  0  0  0  0  0  0  0  0  0  0
   -1.4722    0.0787    0.0000 C   0  0  0  0  0  0  0  0  0  0  0  0
    0.7413   -1.0010    0.0000 C   0  0  0  0  0  0  0  0  0  0  0  0
    1.2262   -0.3337    0.0000 C   0  0  0  0  0  0  0  0  0  0  0  0
    0.7413    0.3337    0.0000 C   0  0  0  0  0  0  0  0  0  0  0  0
   -4.3301   -2.3962    0.0000 O   0  0  0  0  0  0  0  0  0  0  0  0
   -1.4722   -1.5712    0.0000 Cl  0  0  0  0  0  0  0  0  0  0  0  0
   -0.7577   -0.3337    0.0000 H   0  0  0  0  0  0  0  0  0  0  0  0
   -0.0433    0.0787    0.0000 C   0  0  0  0  0  0  0  0  0  0  0  0
   -0.0433    0.9038    0.0000 C   0  0  0  0  0  0  0  0  0  0  0  0
   -0.0433   -0.7462    0.0000 C   0  0  0  0  0  0  0  0  0  0  0  0
   -0.0433   -1.5712    0.0000 H   0  0  0  0  0  0  0  0  0  0  0  0
   -2.1867   -0.3337    0.0000 C   0  0  0  0  0  0  0  0  0  0  0  0
   -2.1867    0.4913    0.0000 O   0  0  0  0  0  0  0  0  0  0  0  0
    2.0512   -0.3337    0.0000 C   0  0  0  0  0  0  0  0  0  0  0  0
    0.7413    1.1587    0.0000 C   0  0  0  0  0  0  0  0  0  0  0  0
    1.4558    1.5712    0.0000 C   0  0  0  0  0  0  0  0  0  0  0  0
    0.0268    1.5712    0.0000 O   0  0  0  0  0  0  0  0  0  0  0  0
    1.4558    2.3962    0.0000 Cl  0  0  0  0  0  0  0  0  0  0  0  0
    1.5663    0.3337    0.0000 O   0  0  0  0  0  0  0  0  0  0  0  0
    2.2808    0.7462    0.0000 C   0  0  0  0  0  0  0  0  0  0  0  0
    2.2808    1.5712    0.0000 O   0  0  0  0  0  0  0  0  0  0  0  0
    2.9952    0.3337    0.0000 C   0  0  0  0  0  0  0  0  0  0  0  0
    3.6627    0.8186    0.0000 O   0  0  0  0  0  0  0  0  0  0  0  0
    3.2502   -0.4508    0.0000 C   0  0  0  0  0  0  0  0  0  0  0  0
    4.0752   -0.4508    0.0000 C   0  0  0  0  0  0  0  0  0  0  0  0
    4.3301    0.3337    0.0000 C   0  0  0  0  0  0  0  0  0  0  0  0
  2  1  1  0
 21  2  1  0
  2 18  1  1
  9  3  2  0
  3  4  1  0
  4  1  1  0
  2  5  1  0
  5 12  1  0
  5 17  1  6
  6  3  1  0
  5  6  1  0
  6 10  1  0
  6 23  1  1
  7  8  1  0
  7 10  2  0
  8  9  1  0
  8 16  2  0
 19 11  1  0
 11 12  1  0
 21 13  1  0
 13 14  1  0
 15 14  1  0
 19 15  1  0
 21 19  1  0
 19 20  1  1
 21 22  1  6
 12 24  1  1
 14 25  1  6
 15 26  1  0
 26 27  1  0
 26 28  2  0
 27 29  1  0
 15 30  1  6
 30 31  1  0
 31 32  2  0
 31 33  1  0
 34 33  1  0
 33 35  2  0
 35 36  1  0
 36 37  2  0
 34 37  1  0
M  END
>  <DATABASE_ID>  (1) 
DB14512

>  <DATABASE_NAME>  (1) 
drugbank

>  <SMILES>  (1) 
[H][C@@]12C[C@@H](C)[C@](OC(=O)C3=CC=CO3)(C(=O)CCl)[C@@]1(C)C[C@H](O)[C@@]1(Cl)[C@@]2([H])CCC2=CC(=O)C=C[C@]12C

>  <INCHI_IDENTIFIER>  (1) 
InChI=1S/C27H30Cl2O6/c1-15-11-19-18-7-6-16-12-17(30)8-9-24(16,2)26(18,29)21(31)13-25(19,3)27(15,22(32)14-28)35-23(33)20-5-4-10-34-20/h4-5,8-10,12,15,18-19,21,31H,6-7,11,13-14H2,1-3H3/t15-,18+,19+,21+,24+,25+,26+,27+/m1/s1

>  <INCHI_KEY>  (1) 
WOFMFGQZHJDGCX-ZULDAHANSA-N

>  <FORMULA>  (1) 
C27H30Cl2O6

>  <MOLECULAR_WEIGHT>  (1) 
521.429

>  <EXACT_MASS>  (1) 
520.141944106

>  <JCHEM_ACCEPTOR_COUNT>  (1) 
4

>  <JCHEM_ATOM_COUNT>  (1) 
65

>  <JCHEM_AVERAGE_NEUTRAL_MICROSPECIES_CHARGE>  (1) 
0.0016083712476220988

>  <JCHEM_AVERAGE_POLARIZABILITY>  (1) 
52.31107211029338

>  <JCHEM_BIOAVAILABILITY>  (1) 
0

>  <JCHEM_DONOR_COUNT>  (1) 
1

>  <JCHEM_FORMAL_CHARGE>  (1) 
0

>  <JCHEM_GHOSE_FILTER>  (1) 
0

>  <JCHEM_IUPAC>  (1) 
(1R,2R,3aS,3bS,9aS,9bR,10S,11aS)-9b-chloro-1-(2-chloroacetyl)-10-hydroxy-2,9a,11a-trimethyl-7-oxo-1H,2H,3H,3aH,3bH,4H,5H,7H,9aH,9bH,10H,11H,11aH-cyclopenta[a]phenanthren-1-yl furan-2-carboxylate

>  <ALOGPS_LOGP>  (1) 
4.27

>  <JCHEM_LOGP>  (1) 
5.055208110333334

>  <ALOGPS_LOGS>  (1) 
-4.68

>  <JCHEM_MDDR_LIKE_RULE>  (1) 
0

>  <JCHEM_NEUTRAL_CHARGE>  (1) 
0

>  <JCHEM_NUMBER_OF_RINGS>  (1) 
5

>  <JCHEM_PHYSIOLOGICAL_CHARGE>  (1) 
0

>  <JCHEM_PKA>  (1) 
15.153326791372162

>  <JCHEM_PKA_STRONGEST_ACIDIC>  (1) 
13.836217227286424

>  <JCHEM_PKA_STRONGEST_BASIC>  (1) 
-3.0953735661808497

>  <JCHEM_POLAR_SURFACE_AREA>  (1) 
93.80999999999999

>  <JCHEM_REFRACTIVITY>  (1) 
132.49989999999997

>  <JCHEM_ROTATABLE_BOND_COUNT>  (1) 
5

>  <JCHEM_RULE_OF_FIVE>  (1) 
0

>  <ALOGPS_SOLUBILITY>  (1) 
1.08e-02 g/l

>  <JCHEM_TRADITIONAL_IUPAC>  (1) 
nasonex

>  <JCHEM_VEBER_RULE>  (1) 
0

>  <DRUGBANK_ID>  (1) 
DB14512

>  <SECONDARY_ACCESSION_NUMBERS>  (1) 
DBSALT002454

>  <DRUG_GROUPS>  (1) 
approved; investigational; vet_approved

>  <GENERIC_NAME>  (1) 
Mometasone furoate

>  <SYNONYMS>  (1) 
Mometasone furoate; Mometasone furoate anhydrous

>  <PRODUCTS>  (1) 
Allergy; Allergy Nasal; Allergy Relief; Apo-mometasone; Asmanex; Asmanex HFA; Asmanex Twisthaler; Atectura Breezhaler; Basic Care Allergy; Bemrist Breezhaler; CVS allergy; Childrens Nasonex; Dulera; Elocom; Elocon; Enerzair Breezhaler; Hyaluronic Acid Sodium Salt 2% / Mometasone Furoate 0.1% / Niacinamide 4%; Leader Allergy Nasal; Mometacure; Mometasone; Mometasone Furoate; Mometasone Furoate Monohydrate; Momexin; Mosaspray; Nasal Allergy and Congestion Relief; Nasonex; Nasonex Allergy and Congestion; PMS-mometasone; Quinixil; Quinosone; Rugby mometasone furoate nasal; Ryaltris; Sandoz Mometasone; Sinuva; Taro-mometasone Cream; Taro-mometasone Lotion; Taro-mometasone Ointment; Teva-mometasone; Topcare Allergy; Up and Up Allergy; Zenhale; Zimbus Breezhaler

>  <INTERNATIONAL_BRANDS>  (1) 
Ecural; Elocom; Elomet; Eziwin; mometAid; Novasone

>  <SALTS>  (1) 
Mometasone furoate monohydrate

$$$$
