347
     RDKit          2D

 10 10  0  0  0  0  0  0  0  0999 V2000
    2.6897    0.6348    0.0000 O   0  0  0  0  0  0  0  0  0  0  0  0
    4.5544   -0.4049    0.0000 O   0  0  0  0  0  0  0  0  0  0  0  0
    1.6501   -0.4049    0.0000 O   0  0  0  0  0  0  0  0  0  0  0  0
    3.1023   -0.6348    0.0000 N   0  0  0  0  0  0  0  0  0  0  0  0
    3.5148    0.6348    0.0000 C   0  0  0  0  0  0  0  0  0  0  0  0
    3.7697   -0.1498    0.0000 C   0  0  0  0  0  0  0  0  0  0  0  0
    4.2994    0.8897    0.0000 C   0  0  0  0  0  0  0  0  0  0  0  0
    3.5148    1.4598    0.0000 C   0  0  0  0  0  0  0  0  0  0  0  0
    2.4348   -0.1498    0.0000 C   0  0  0  0  0  0  0  0  0  0  0  0
    3.1023   -1.4598    0.0000 C   0  0  0  0  0  0  0  0  0  0  0  0
  1  5  1  0
  1  9  1  0
  2  6  2  0
  3  9  2  0
  4  6  1  0
  4  9  1  0
  4 10  1  0
  5  6  1  0
  5  7  1  0
  5  8  1  0
M  END
>  <DATABASE_ID>  (1) 
DB00347

>  <DATABASE_NAME>  (1) 
drugbank

>  <SMILES>  (1) 
CN1C(=O)OC(C)(C)C1=O

>  <INCHI_IDENTIFIER>  (1) 
InChI=1S/C6H9NO3/c1-6(2)4(8)7(3)5(9)10-6/h1-3H3

>  <INCHI_KEY>  (1) 
IRYJRGCIQBGHIV-UHFFFAOYSA-N

>  <FORMULA>  (1) 
C6H9NO3

>  <MOLECULAR_WEIGHT>  (1) 
143.1406

>  <EXACT_MASS>  (1) 
143.058243159

>  <JCHEM_ACCEPTOR_COUNT>  (1) 
2

>  <JCHEM_ATOM_COUNT>  (1) 
19

>  <JCHEM_AVERAGE_NEUTRAL_MICROSPECIES_CHARGE>  (1) 
0.0

>  <JCHEM_AVERAGE_POLARIZABILITY>  (1) 
13.588461525029217

>  <JCHEM_BIOAVAILABILITY>  (1) 
1

>  <JCHEM_DONOR_COUNT>  (1) 
0

>  <JCHEM_FORMAL_CHARGE>  (1) 
0

>  <JCHEM_GHOSE_FILTER>  (1) 
0

>  <JCHEM_IUPAC>  (1) 
trimethyl-1,3-oxazolidine-2,4-dione

>  <ALOGPS_LOGP>  (1) 
0.07

>  <JCHEM_LOGP>  (1) 
0.5041463303333331

>  <ALOGPS_LOGS>  (1) 
0.17

>  <JCHEM_MDDR_LIKE_RULE>  (1) 
0

>  <JCHEM_NEUTRAL_CHARGE>  (1) 
0

>  <JCHEM_NUMBER_OF_RINGS>  (1) 
1

>  <JCHEM_PHYSIOLOGICAL_CHARGE>  (1) 
0

>  <JCHEM_POLAR_SURFACE_AREA>  (1) 
46.61000000000001

>  <JCHEM_REFRACTIVITY>  (1) 
33.200199999999995

>  <JCHEM_ROTATABLE_BOND_COUNT>  (1) 
0

>  <JCHEM_RULE_OF_FIVE>  (1) 
1

>  <ALOGPS_SOLUBILITY>  (1) 
2.12e+02 g/l

>  <JCHEM_TRADITIONAL_IUPAC>  (1) 
tetrahydrofolic acid

>  <JCHEM_VEBER_RULE>  (1) 
0

>  <DRUGBANK_ID>  (1) 
DB00347

>  <SECONDARY_ACCESSION_NUMBERS>  (1) 
APRD00315

>  <DRUG_GROUPS>  (1) 
approved; withdrawn

>  <GENERIC_NAME>  (1) 
Trimethadione

>  <SYNONYMS>  (1) 
Trimetadiona; Trimethadion; Trimethadione; Triméthadione; Trimethadionum; Trimethinum; Troxidone

>  <PRODUCTS>  (1) 
Tridione

>  <INTERNATIONAL_BRANDS>  (1) 
Minoale

$$$$
