
     RDKit          2D

 20 21  0  0  0  0  0  0  0  0999 V2000
   -2.8579    5.7750    0.0000 C   0  0  0  0  0  0  0  0  0  0  0  0
   -5.7158    9.0750    0.0000 C   0  0  0  0  0  0  0  0  0  0  0  0
   -5.4138    7.9480    0.0000 C   0  0  0  0  0  0  0  0  0  0  0  0
   -4.5888    9.3770    0.0000 C   0  0  0  0  0  0  0  0  0  0  0  0
   -1.4289    3.3000    0.0000 C   0  0  0  0  0  0  0  0  0  0  0  0
   -0.7145    3.7125    0.0000 C   0  0  0  0  0  0  0  0  0  0  0  0
   -2.1434    3.7125    0.0000 C   0  0  0  0  0  0  0  0  0  0  0  0
   -2.8579    8.2500    0.0000 C   0  0  0  0  0  0  0  0  0  0  0  0
   -3.5724    7.0125    0.0000 C   0  0  0  0  0  0  0  0  0  0  0  0
   -3.5724    8.6625    0.0000 C   0  0  0  0  0  0  0  0  0  0  0  0
   -4.2868    7.4250    0.0000 C   0  0  0  0  0  0  0  0  0  0  0  0
   -0.7145    4.5375    0.0000 C   0  0  0  0  0  0  0  0  0  0  0  0
   -2.1434    4.5375    0.0000 C   0  0  0  0  0  0  0  0  0  0  0  0
   -2.1434    7.0125    0.0000 C   0  0  0  0  0  0  0  0  0  0  0  0
   -1.4289    5.7750    0.0000 C   0  0  0  0  0  0  0  0  0  0  0  0
   -2.1434    6.1875    0.0000 C   0  0  0  0  0  0  0  0  0  0  0  0
   -2.8579    7.4250    0.0000 C   0  0  0  0  0  0  0  0  0  0  0  0
   -4.2868    8.2500    0.0000 C   0  0  0  0  0  0  0  0  0  0  0  0
   -5.0013    8.6625    0.0000 C   0  0  0  0  0  0  0  0  0  0  0  0
   -1.4289    4.9500    0.0000 N   0  0  0  0  0  0  0  0  0  0  0  0
  6  5  1  0
  7  5  1  0
 10  8  2  0
 11  9  1  0
 12  6  1  0
 13  7  1  0
 16  1  1  0
 16 14  1  0
 16 15  1  0
 17  8  1  0
 17  9  2  0
 17 14  1  0
 18 10  1  0
 18 11  2  0
 19  2  1  0
 19  3  1  0
 19  4  1  0
 19 18  1  0
 20 12  1  0
 20 13  1  0
 20 15  1  0
M  END
>  <DATABASE_ID>  (1) 
DB12728

>  <DATABASE_NAME>  (1) 
drugbank

>  <SMILES>  (1) 
CC(CN1CCCCC1)CC1=CC=C(C=C1)C(C)(C)C

>  <INCHI_IDENTIFIER>  (1) 
InChI=1S/C19H31N/c1-16(15-20-12-6-5-7-13-20)14-17-8-10-18(11-9-17)19(2,3)4/h8-11,16H,5-7,12-15H2,1-4H3

>  <INCHI_KEY>  (1) 
MGNFYQILYYYUBS-UHFFFAOYSA-N

>  <FORMULA>  (1) 
C19H31N

>  <MOLECULAR_WEIGHT>  (1) 
273.464

>  <EXACT_MASS>  (1) 
273.245650002

>  <JCHEM_ACCEPTOR_COUNT>  (1) 
1

>  <JCHEM_ATOM_COUNT>  (1) 
51

>  <JCHEM_AVERAGE_POLARIZABILITY>  (1) 
35.268457405858214

>  <JCHEM_BIOAVAILABILITY>  (1) 
1

>  <JCHEM_DONOR_COUNT>  (1) 
0

>  <JCHEM_FORMAL_CHARGE>  (1) 
0

>  <JCHEM_GHOSE_FILTER>  (1) 
1

>  <JCHEM_IUPAC>  (1) 
1-{2-[(4-tert-butylphenyl)methyl]propyl}piperidine

>  <ALOGPS_LOGP>  (1) 
6.32

>  <JCHEM_LOGP>  (1) 
5.408267681666667

>  <ALOGPS_LOGS>  (1) 
-5.77

>  <JCHEM_MDDR_LIKE_RULE>  (1) 
0

>  <JCHEM_NUMBER_OF_RINGS>  (1) 
2

>  <JCHEM_PHYSIOLOGICAL_CHARGE>  (1) 
1

>  <JCHEM_PKA_STRONGEST_BASIC>  (1) 
10.082402122401763

>  <JCHEM_POLAR_SURFACE_AREA>  (1) 
3.24

>  <JCHEM_REFRACTIVITY>  (1) 
89.2362

>  <JCHEM_ROTATABLE_BOND_COUNT>  (1) 
5

>  <JCHEM_RULE_OF_FIVE>  (1) 
0

>  <ALOGPS_SOLUBILITY>  (1) 
4.61e-04 g/l

>  <JCHEM_TRADITIONAL_IUPAC>  (1) 
fenpropidin

>  <JCHEM_VEBER_RULE>  (1) 
1

>  <DRUGBANK_ID>  (1) 
DB12728

>  <DRUG_GROUPS>  (1) 
approved; withdrawn

>  <GENERIC_NAME>  (1) 
Fenpropidin

>  <SYNONYMS>  (1) 
Fenpropidin; Patrol

$$$$
