
     RDKit          2D

  5  3  0  0  0  0  0  0  0  0999 V2000
    0.0000    0.6040    0.0000 V   0  0  0  0  0  5  0  0  0  0  0  0
    0.7145    1.0166    0.0000 O   0  0  0  0  0  0  0  0  0  0  0  0
   -0.7145    1.0166    0.0000 O   0  0  0  0  0  0  0  0  0  0  0  0
    0.0000   -0.2209    0.0000 O   0  0  0  0  0  0  0  0  0  0  0  0
    0.0000   -1.0166    0.0000 Na  0  0  0  0  0 15  0  0  0  0  0  0
  1  2  2  0
  1  3  2  0
  1  4  1  0
M  CHG  2   4  -1   5   1
M  END
>  <DATABASE_ID>  (1) 
DB14702

>  <DATABASE_NAME>  (1) 
drugbank

>  <SMILES>  (1) 
[Na+].[O-][V](=O)=O

>  <INCHI_IDENTIFIER>  (1) 
InChI=1S/Na.3O.V/q+1;;;-1;

>  <INCHI_KEY>  (1) 
CMZUMMUJMWNLFH-UHFFFAOYSA-N

>  <FORMULA>  (1) 
NaO3V

>  <MOLECULAR_WEIGHT>  (1) 
121.9295

>  <EXACT_MASS>  (1) 
121.918477216

>  <JCHEM_ACCEPTOR_COUNT>  (1) 
3

>  <JCHEM_ATOM_COUNT>  (1) 
5

>  <JCHEM_AVERAGE_POLARIZABILITY>  (1) 
5.101303276117812

>  <JCHEM_BIOAVAILABILITY>  (1) 
1

>  <JCHEM_DONOR_COUNT>  (1) 
0

>  <JCHEM_FORMAL_CHARGE>  (1) 
0

>  <JCHEM_GHOSE_FILTER>  (1) 
0

>  <JCHEM_IUPAC>  (1) 
sodium vanadiumoylolate

>  <JCHEM_LOGP>  (1) 
-1.2389999999999999

>  <JCHEM_MDDR_LIKE_RULE>  (1) 
0

>  <JCHEM_NUMBER_OF_RINGS>  (1) 
0

>  <JCHEM_PHYSIOLOGICAL_CHARGE>  (1) 
-1

>  <JCHEM_PKA_STRONGEST_ACIDIC>  (1) 
-2.0

>  <JCHEM_POLAR_SURFACE_AREA>  (1) 
57.2

>  <JCHEM_REFRACTIVITY>  (1) 
4.3287

>  <JCHEM_ROTATABLE_BOND_COUNT>  (1) 
0

>  <JCHEM_RULE_OF_FIVE>  (1) 
1

>  <JCHEM_TRADITIONAL_IUPAC>  (1) 
sodium vanadate

>  <JCHEM_VEBER_RULE>  (1) 
0

>  <DRUGBANK_ID>  (1) 
DB14702

>  <DRUG_GROUPS>  (1) 
approved

>  <GENERIC_NAME>  (1) 
Sodium metavanadate

>  <SYNONYMS>  (1) 
Sodium metavanadate; Sodium trioxovanadate; Sodium vanadate; Sodium vanadate(V); Sodium vanadium oxide; Vanadic acid, monosodium salt

>  <PRODUCTS>  (1) 
B.E.T. Complex; High Potency Multivitamins & Minerals Caplets; Milltrium Senior Vitamin and Mineral Supplement; Mineral Support; Multivitamins and Minerals Tablets; Spectrum Performa Multivitamins and Minerals Tablets

>  <SALTS>  (1) 
Sodium metavanadate tetrahydrate

$$$$
