
     RDKit          2D

 30 33  0  0  0  0  0  0  0  0999 V2000
   -0.2052    2.2158    0.0000 O   0  0  0  0  0  0  0  0  0  0  0  0
    1.7570   -1.6865    0.0000 O   0  0  0  0  0  0  0  0  0  0  0  0
   -1.8957    0.1746    0.0000 O   0  0  0  0  0  0  0  0  0  0  0  0
    1.3012   -3.0408    0.0000 O   0  0  0  0  0  0  0  0  0  0  0  0
   -3.3183    0.3091    0.0000 O   0  0  0  0  0  0  0  0  0  0  0  0
    1.1048    2.8832    0.0000 N   0  0  0  0  0  0  0  0  0  0  0  0
    1.1048    1.5483    0.0000 C   0  0  0  0  0  0  0  0  0  0  0  0
    1.8893    1.8033    0.0000 C   0  0  0  0  0  0  0  0  0  0  0  0
    0.6198    2.2158    0.0000 C   0  0  0  0  0  0  0  0  0  0  0  0
    1.2677    0.7396    0.0000 C   0  0  0  0  0  0  0  0  0  0  0  0
    0.3546    1.2049    0.0000 C   0  0  0  0  0  0  0  0  0  0  0  0
    1.8893    2.6283    0.0000 C   0  0  0  0  0  0  0  0  0  0  0  0
    2.6038    1.3908    0.0000 C   0  0  0  0  0  0  0  0  0  0  0  0
    2.0497    0.4765    0.0000 C   0  0  0  0  0  0  0  0  0  0  0  0
    0.2769    0.3836    0.0000 C   0  0  0  0  0  0  0  0  0  0  0  0
    0.6490    0.1940    0.0000 C   0  0  0  0  0  0  0  0  0  0  0  0
   -0.3178    1.6828    0.0000 C   0  0  0  0  0  0  0  0  0  0  0  0
    2.6038    3.0408    0.0000 C   0  0  0  0  0  0  0  0  0  0  0  0
    3.3183    1.8033    0.0000 C   0  0  0  0  0  0  0  0  0  0  0  0
    3.3183    2.6283    0.0000 C   0  0  0  0  0  0  0  0  0  0  0  0
    2.2128   -0.3322    0.0000 C   0  0  0  0  0  0  0  0  0  0  0  0
   -0.4731    0.0401    0.0000 C   0  0  0  0  0  0  0  0  0  0  0  0
    0.8119   -0.6146    0.0000 C   0  0  0  0  0  0  0  0  0  0  0  0
   -1.0680    1.3394    0.0000 C   0  0  0  0  0  0  0  0  0  0  0  0
    1.5940   -0.8777    0.0000 C   0  0  0  0  0  0  0  0  0  0  0  0
   -1.1456    0.5180    0.0000 C   0  0  0  0  0  0  0  0  0  0  0  0
    1.1381   -2.2320    0.0000 C   0  0  0  0  0  0  0  0  0  0  0  0
   -2.5681    0.6525    0.0000 C   0  0  0  0  0  0  0  0  0  0  0  0
    0.3562   -1.9689    0.0000 C   0  0  0  0  0  0  0  0  0  0  0  0
   -2.4906    1.4738    0.0000 C   0  0  0  0  0  0  0  0  0  0  0  0
  1  9  2  0
  2 25  1  0
  2 27  1  0
  3 26  1  0
  3 28  1  0
  4 27  2  0
  5 28  2  0
  6  9  1  0
  6 12  1  0
  7  8  1  0
  7  9  1  0
  7 10  1  0
  7 11  1  0
  8 12  2  0
  8 13  1  0
 10 14  2  0
 10 16  1  0
 11 15  2  0
 11 17  1  0
 12 18  1  0
 13 19  2  0
 14 21  1  0
 15 22  1  0
 16 23  2  0
 17 24  2  0
 18 20  2  0
 19 20  1  0
 21 25  2  0
 22 26  2  0
 23 25  1  0
 24 26  1  0
 27 29  1  0
 28 30  1  0
M  END
>  <DATABASE_ID>  (1) 
DB14627

>  <DATABASE_NAME>  (1) 
drugbank

>  <SMILES>  (1) 
CC(=O)OC1=CC=C(C=C1)C1(C(=O)NC2=CC=CC=C12)C1=CC=C(OC(C)=O)C=C1

>  <INCHI_IDENTIFIER>  (1) 
InChI=1S/C24H19NO5/c1-15(26)29-19-11-7-17(8-12-19)24(18-9-13-20(14-10-18)30-16(2)27)21-5-3-4-6-22(21)25-23(24)28/h3-14H,1-2H3,(H,25,28)

>  <INCHI_KEY>  (1) 
PHPUXYRXPHEJDF-UHFFFAOYSA-N

>  <FORMULA>  (1) 
C24H19NO5

>  <MOLECULAR_WEIGHT>  (1) 
401.418

>  <EXACT_MASS>  (1) 
401.126322716

>  <JCHEM_ACCEPTOR_COUNT>  (1) 
3

>  <JCHEM_ATOM_COUNT>  (1) 
49

>  <JCHEM_AVERAGE_POLARIZABILITY>  (1) 
42.21083107353409

>  <JCHEM_BIOAVAILABILITY>  (1) 
1

>  <JCHEM_DONOR_COUNT>  (1) 
1

>  <JCHEM_FORMAL_CHARGE>  (1) 
0

>  <JCHEM_GHOSE_FILTER>  (1) 
1

>  <JCHEM_IUPAC>  (1) 
4-{3-[4-(acetyloxy)phenyl]-2-oxo-2,3-dihydro-1H-indol-3-yl}phenyl acetate

>  <ALOGPS_LOGP>  (1) 
4.19

>  <JCHEM_LOGP>  (1) 
3.653180661333333

>  <ALOGPS_LOGS>  (1) 
-5.91

>  <JCHEM_MDDR_LIKE_RULE>  (1) 
1

>  <JCHEM_NUMBER_OF_RINGS>  (1) 
4

>  <JCHEM_PHYSIOLOGICAL_CHARGE>  (1) 
0

>  <JCHEM_PKA_STRONGEST_ACIDIC>  (1) 
12.800621270870291

>  <JCHEM_PKA_STRONGEST_BASIC>  (1) 
-6.472337183751517

>  <JCHEM_POLAR_SURFACE_AREA>  (1) 
81.7

>  <JCHEM_REFRACTIVITY>  (1) 
111.99330000000003

>  <JCHEM_ROTATABLE_BOND_COUNT>  (1) 
6

>  <JCHEM_RULE_OF_FIVE>  (1) 
1

>  <ALOGPS_SOLUBILITY>  (1) 
4.93e-04 g/l

>  <JCHEM_TRADITIONAL_IUPAC>  (1) 
contax

>  <JCHEM_VEBER_RULE>  (1) 
0

>  <DRUGBANK_ID>  (1) 
DB14627

>  <SECONDARY_ACCESSION_NUMBERS>  (1) 
DBSALT002242

>  <DRUG_GROUPS>  (1) 
approved; withdrawn

>  <GENERIC_NAME>  (1) 
Oxyphenisatin acetate

>  <SYNONYMS>  (1) 
Oxyphenisatin acetate; Oxyphenisatin diacetate; Oxyphenisatine acetate

$$$$
