763
     RDKit          2D

  7  7  0  0  0  0  0  0  0  0999 V2000
    3.7697   -0.1992    0.0000 S   0  0  0  0  0  0  0  0  0  0  0  0
    2.3176   -0.4292    0.0000 N   0  0  0  0  0  0  0  0  0  0  0  0
    2.7301    0.8404    0.0000 N   0  0  0  0  0  0  0  0  0  0  0  0
    2.9850    0.0558    0.0000 C   0  0  0  0  0  0  0  0  0  0  0  0
    1.6501    0.0558    0.0000 C   0  0  0  0  0  0  0  0  0  0  0  0
    2.3176   -1.2542    0.0000 C   0  0  0  0  0  0  0  0  0  0  0  0
    1.9050    0.8404    0.0000 C   0  0  0  0  0  0  0  0  0  0  0  0
  1  4  2  0
  2  4  1  0
  2  5  1  0
  2  6  1  0
  3  4  1  0
  3  7  1  0
  5  7  2  0
M  END
>  <DATABASE_ID>  (1) 
DB00763

>  <DATABASE_NAME>  (1) 
drugbank

>  <SMILES>  (1) 
CN1C=CNC1=S

>  <INCHI_IDENTIFIER>  (1) 
InChI=1S/C4H6N2S/c1-6-3-2-5-4(6)7/h2-3H,1H3,(H,5,7)

>  <INCHI_KEY>  (1) 
PMRYVIKBURPHAH-UHFFFAOYSA-N

>  <FORMULA>  (1) 
C4H6N2S

>  <MOLECULAR_WEIGHT>  (1) 
114.169

>  <EXACT_MASS>  (1) 
114.025168892

>  <JCHEM_ACCEPTOR_COUNT>  (1) 
0

>  <JCHEM_ATOM_COUNT>  (1) 
13

>  <JCHEM_AVERAGE_NEUTRAL_MICROSPECIES_CHARGE>  (1) 
-0.0003871370500004629

>  <JCHEM_AVERAGE_POLARIZABILITY>  (1) 
11.638334356803103

>  <JCHEM_BIOAVAILABILITY>  (1) 
1

>  <JCHEM_DONOR_COUNT>  (1) 
1

>  <JCHEM_FORMAL_CHARGE>  (1) 
0

>  <JCHEM_GHOSE_FILTER>  (1) 
0

>  <JCHEM_IUPAC>  (1) 
1-methyl-2,3-dihydro-1H-imidazole-2-thione

>  <ALOGPS_LOGP>  (1) 
-0.38

>  <JCHEM_LOGP>  (1) 
0.7456704696666666

>  <ALOGPS_LOGS>  (1) 
-1.00

>  <JCHEM_MDDR_LIKE_RULE>  (1) 
0

>  <JCHEM_NEUTRAL_CHARGE>  (1) 
0

>  <JCHEM_NUMBER_OF_RINGS>  (1) 
1

>  <JCHEM_PHYSIOLOGICAL_CHARGE>  (1) 
0

>  <JCHEM_PKA_STRONGEST_ACIDIC>  (1) 
10.411967099567498

>  <JCHEM_POLAR_SURFACE_AREA>  (1) 
15.27

>  <JCHEM_REFRACTIVITY>  (1) 
33.2322

>  <JCHEM_ROTATABLE_BOND_COUNT>  (1) 
0

>  <JCHEM_RULE_OF_FIVE>  (1) 
1

>  <ALOGPS_SOLUBILITY>  (1) 
1.13e+01 g/l

>  <JCHEM_TRADITIONAL_IUPAC>  (1) 
tetrahydrofolic acid

>  <JCHEM_VEBER_RULE>  (1) 
1

>  <DRUGBANK_ID>  (1) 
DB00763

>  <SECONDARY_ACCESSION_NUMBERS>  (1) 
APRD00002

>  <DRUG_GROUPS>  (1) 
approved; investigational

>  <GENERIC_NAME>  (1) 
Methimazole

>  <SYNONYMS>  (1) 
1-Methylimidazole-2(3H)-thione; Methimazole; Thiamazol; Thiamazole; Thiamazolum; Tiamazol

>  <PRODUCTS>  (1) 
Apo-methimazole; Dom-methimazole; Jamp Methimazole; Mar-methimazole; Methimazole; Methimazole Tablets USP; PHL-methimazole; PMS-methimazole; Tapazole

>  <INTERNATIONAL_BRANDS>  (1) 
Danantizol; Favistan; Metizol; Strumazol; Strumazole; Thacapzol; Thycapzol; Thyrozol; Tirozol

$$$$
