
     RDKit          2D

 20 21  0  0  0  0  0  0  0  0999 V2000
   -3.6829    1.4289    0.0000 C   0  0  0  0  0  0  0  0  0  0  0  0
   -3.6829    0.0000    0.0000 C   0  0  0  0  0  0  0  0  0  0  0  0
    3.5893   -2.4209    0.0000 C   0  0  0  0  0  0  0  0  0  0  0  0
    2.8748   -3.6584    0.0000 C   0  0  0  0  0  0  0  0  0  0  0  0
   -2.8579    1.4289    0.0000 C   0  0  0  0  0  0  0  0  0  0  0  0
   -2.8579    0.0000    0.0000 C   0  0  0  0  0  0  0  0  0  0  0  0
   -0.3829   -1.4289    0.0000 C   0  0  0  0  0  0  0  0  0  0  0  0
    0.0296   -2.1434    0.0000 C   0  0  0  0  0  0  0  0  0  0  0  0
   -1.6204    0.7145    0.0000 C   0  0  0  0  0  0  0  0  0  0  0  0
   -1.2079    0.0000    0.0000 C   0  0  0  0  0  0  0  0  0  0  0  0
    0.8546   -0.7145    0.0000 C   0  0  0  0  0  0  0  0  0  0  0  0
    0.0296   -0.7145    0.0000 C   0  0  0  0  0  0  0  0  0  0  0  0
    0.8546   -2.1434    0.0000 C   0  0  0  0  0  0  0  0  0  0  0  0
    1.2671   -1.4289    0.0000 C   0  0  0  0  0  0  0  0  0  0  0  0
    2.1603   -2.4209    0.0000 C   0  0  0  0  0  0  0  0  0  0  0  0
    1.4066   -2.7565    0.0000 N   0  0  0  0  0  0  0  0  0  0  0  0
    2.8748   -2.8334    0.0000 N   0  0  0  0  0  0  0  0  0  0  0  0
   -2.4454    0.7145    0.0000 N   0  0  0  0  0  0  0  0  0  0  0  0
   -0.3829    0.0000    0.0000 O   0  0  0  0  0  0  0  0  0  0  0  0
    2.0741   -1.6005    0.0000 S   0  0  0  0  0  0  0  0  0  0  0  0
  5  1  1  0
  6  2  1  0
  8  7  2  0
 10  9  1  0
 12  7  1  0
 12 11  2  0
 13  8  1  0
 14 11  1  0
 14 13  2  0
 16 13  1  0
 16 15  2  0
 17  3  1  0
 17  4  1  0
 17 15  1  0
 18  5  1  0
 18  6  1  0
 18  9  1  0
 19 10  1  0
 19 12  1  0
 20 14  1  0
 20 15  1  0
M  END
>  <DATABASE_ID>  (1) 
DB13858

>  <DATABASE_NAME>  (1) 
drugbank

>  <SMILES>  (1) 
CCN(CC)CCOC1=CC2=C(C=C1)N=C(S2)N(C)C

>  <INCHI_IDENTIFIER>  (1) 
InChI=1S/C15H23N3OS/c1-5-18(6-2)9-10-19-12-7-8-13-14(11-12)20-15(16-13)17(3)4/h7-8,11H,5-6,9-10H2,1-4H3

>  <INCHI_KEY>  (1) 
WGMYEOIMVYADRJ-UHFFFAOYSA-N

>  <FORMULA>  (1) 
C15H23N3OS

>  <MOLECULAR_WEIGHT>  (1) 
293.43

>  <EXACT_MASS>  (1) 
293.156183547

>  <JCHEM_ACCEPTOR_COUNT>  (1) 
4

>  <JCHEM_ATOM_COUNT>  (1) 
43

>  <JCHEM_AVERAGE_POLARIZABILITY>  (1) 
34.42078626788442

>  <JCHEM_BIOAVAILABILITY>  (1) 
1

>  <JCHEM_DONOR_COUNT>  (1) 
0

>  <JCHEM_FORMAL_CHARGE>  (1) 
0

>  <JCHEM_GHOSE_FILTER>  (1) 
1

>  <JCHEM_IUPAC>  (1) 
6-[2-(diethylamino)ethoxy]-N,N-dimethyl-1,3-benzothiazol-2-amine

>  <ALOGPS_LOGP>  (1) 
3.57

>  <JCHEM_LOGP>  (1) 
3.4803547950000002

>  <ALOGPS_LOGS>  (1) 
-3.32

>  <JCHEM_MDDR_LIKE_RULE>  (1) 
0

>  <JCHEM_NUMBER_OF_RINGS>  (1) 
2

>  <JCHEM_PHYSIOLOGICAL_CHARGE>  (1) 
1

>  <JCHEM_PKA_STRONGEST_BASIC>  (1) 
9.281330161545819

>  <JCHEM_POLAR_SURFACE_AREA>  (1) 
28.600000000000005

>  <JCHEM_REFRACTIVITY>  (1) 
85.0101

>  <JCHEM_ROTATABLE_BOND_COUNT>  (1) 
7

>  <JCHEM_RULE_OF_FIVE>  (1) 
1

>  <ALOGPS_SOLUBILITY>  (1) 
1.39e-01 g/l

>  <JCHEM_TRADITIONAL_IUPAC>  (1) 
6-[2-(diethylamino)ethoxy]-N,N-dimethyl-1,3-benzothiazol-2-amine

>  <JCHEM_VEBER_RULE>  (1) 
1

>  <DRUGBANK_ID>  (1) 
DB13858

>  <DRUG_GROUPS>  (1) 
approved; withdrawn

>  <GENERIC_NAME>  (1) 
Dimazole

>  <SYNONYMS>  (1) 
Diamthazole; Dimazole

>  <SALTS>  (1) 
Dimazole dihydrochloride

$$$$
