751
     RDKit          2D

 19 22  0  0  1  0  0  0  0  0999 V2000
    3.5990   -0.4158    0.0000 N   0  0  0  0  0  0  0  0  0  0  0  0
    2.7164   -1.3358    0.0000 N   0  0  0  0  0  0  0  0  0  0  0  0
    4.0629   -1.7442    0.0000 N   0  0  0  0  0  0  0  0  0  0  0  0
    2.8853   -0.0722    0.0000 C   0  0  0  0  0  0  0  0  0  0  0  0
    2.7091    0.7001    0.0000 C   0  0  0  0  0  0  0  0  0  0  0  0
    2.3427   -0.6427    0.0000 C   0  0  0  0  0  0  0  0  0  0  0  0
    4.3126   -0.0722    0.0000 C   0  0  0  0  0  0  0  0  0  0  0  0
    3.2029    1.3193    0.0000 C   0  0  0  0  0  0  0  0  0  0  0  0
    3.9951    1.3193    0.0000 C   0  0  0  0  0  0  0  0  0  0  0  0
    4.4889    0.7001    0.0000 C   0  0  0  0  0  0  0  0  0  0  0  0
    3.4913   -1.1959    0.0000 C   0  0  0  0  0  0  0  0  0  0  0  0
    1.8914    0.8104    0.0000 C   0  0  0  0  0  0  0  0  0  0  0  0
    2.9133    2.0918    0.0000 C   0  0  0  0  0  0  0  0  0  0  0  0
    4.9087   -0.6426    0.0000 C   0  0  0  0  0  0  0  0  0  0  0  0
    5.2734    0.9553    0.0000 C   0  0  0  0  0  0  0  0  0  0  0  0
    1.5842    1.5760    0.0000 C   0  0  0  0  0  0  0  0  0  0  0  0
    2.0985    2.2212    0.0000 C   0  0  0  0  0  0  0  0  0  0  0  0
    5.6990   -0.4056    0.0000 C   0  0  0  0  0  0  0  0  0  0  0  0
    5.8826    0.3989    0.0000 C   0  0  0  0  0  0  0  0  0  0  0  0
  1  4  1  0
  1  7  1  0
  1 11  1  0
  2  6  1  0
  2 11  2  0
  3 11  1  0
  4  5  1  0
  4  6  1  0
  5  8  2  0
  5 12  1  0
  7 10  2  0
  7 14  1  0
  8  9  1  0
  8 13  1  0
  9 10  1  0
 10 15  1  0
 12 16  2  0
 13 17  2  0
 14 18  2  0
 15 19  2  0
 16 17  1  0
 18 19  1  0
M  END
>  <DATABASE_ID>  (1) 
DB00751

>  <DATABASE_NAME>  (1) 
drugbank

>  <SMILES>  (1) 
NC1=NCC2N1C1=CC=CC=C1CC1=CC=CC=C21

>  <INCHI_IDENTIFIER>  (1) 
InChI=1S/C16H15N3/c17-16-18-10-15-13-7-3-1-5-11(13)9-12-6-2-4-8-14(12)19(15)16/h1-8,15H,9-10H2,(H2,17,18)

>  <INCHI_KEY>  (1) 
WHWZLSFABNNENI-UHFFFAOYSA-N

>  <FORMULA>  (1) 
C16H15N3

>  <MOLECULAR_WEIGHT>  (1) 
249.3104

>  <EXACT_MASS>  (1) 
249.126597495

>  <JCHEM_ACCEPTOR_COUNT>  (1) 
3

>  <JCHEM_ATOM_COUNT>  (1) 
34

>  <JCHEM_AVERAGE_NEUTRAL_MICROSPECIES_CHARGE>  (1) 
0.9831695427491423

>  <JCHEM_AVERAGE_POLARIZABILITY>  (1) 
27.328637193742555

>  <JCHEM_BIOAVAILABILITY>  (1) 
1

>  <JCHEM_DONOR_COUNT>  (1) 
1

>  <JCHEM_FORMAL_CHARGE>  (1) 
0

>  <JCHEM_GHOSE_FILTER>  (1) 
1

>  <JCHEM_IUPAC>  (1) 
2,4-diazatetracyclo[12.4.0.0^{2,6}.0^{7,12}]octadeca-1(18),3,7,9,11,14,16-heptaen-3-amine

>  <ALOGPS_LOGP>  (1) 
2.53

>  <JCHEM_LOGP>  (1) 
3.073111085666667

>  <ALOGPS_LOGS>  (1) 
-3.18

>  <JCHEM_MDDR_LIKE_RULE>  (1) 
0

>  <JCHEM_NEUTRAL_CHARGE>  (1) 
1

>  <JCHEM_NUMBER_OF_RINGS>  (1) 
4

>  <JCHEM_PHYSIOLOGICAL_CHARGE>  (1) 
1

>  <JCHEM_PKA_STRONGEST_BASIC>  (1) 
8.766532501729468

>  <JCHEM_POLAR_SURFACE_AREA>  (1) 
41.62

>  <JCHEM_REFRACTIVITY>  (1) 
76.90140000000002

>  <JCHEM_ROTATABLE_BOND_COUNT>  (1) 
0

>  <JCHEM_RULE_OF_FIVE>  (1) 
1

>  <ALOGPS_SOLUBILITY>  (1) 
1.63e-01 g/l

>  <JCHEM_TRADITIONAL_IUPAC>  (1) 
tetrahydrofolic acid

>  <JCHEM_VEBER_RULE>  (1) 
0

>  <DRUGBANK_ID>  (1) 
DB00751

>  <SECONDARY_ACCESSION_NUMBERS>  (1) 
APRD00043

>  <DRUG_GROUPS>  (1) 
approved

>  <GENERIC_NAME>  (1) 
Epinastine

>  <SYNONYMS>  (1) 
(±)-epinastine; 3-amino-9,13b-dihydro-1H-dibenz(c,f)imidazo(1,5-a)azepine; Epinastin; Epinastina; Epinastine; épinastine; Epinastinum

>  <PRODUCTS>  (1) 
Elestat; Epinastine; Epinastine HCl; Epinastine Hydrochloride

>  <INTERNATIONAL_BRANDS>  (1) 
Alegain; Alenapion; Alesion; Alesiotec; Alket; Allernothin; Allerstin; Alpeed; Aplatin; Aresten; Asmot; Atergit; Azusaleon; Elpinan; Epinazion; Epioftal; Flurinol; Helvottz; Kai lai Zhi; Pinasion; Purivist; Relenastine; Relestat; Talerc; Timkent; Yupitel

>  <SALTS>  (1) 
Epinastine hydrochloride

$$$$
