
     RDKit          2D

 26 29  0  0  1  0  0  0  0  0999 V2000
   -4.9886   -1.7065    0.0000 C   0  0  0  0  0  0  0  0  0  0  0  0
   -5.4011   -0.9920    0.0000 C   0  0  0  0  0  0  0  0  0  0  0  0
   -4.9886   -0.2775    0.0000 C   0  0  0  0  0  0  0  0  0  0  0  0
   -4.1636   -0.2775    0.0000 C   0  0  0  0  0  0  0  0  0  0  0  0
   -3.7511   -0.9920    0.0000 C   0  0  0  0  0  0  0  0  0  0  0  0
   -4.1636   -1.7065    0.0000 C   0  0  0  0  0  0  0  0  0  0  0  0
   -2.9441   -0.8205    0.0000 N   0  0  0  0  0  0  0  0  0  0  0  0
   -2.8579   -0.0000    0.0000 C   0  0  0  0  0  0  0  0  0  0  0  0
   -3.6116    0.3356    0.0000 N   0  0  0  0  0  0  0  0  0  0  0  0
   -2.1434    0.4125    0.0000 C   0  0  0  0  0  0  0  0  0  0  0  0
   -1.4289   -0.0000    0.0000 N   0  0  0  0  0  0  0  0  0  0  0  0
   -0.7145    0.4125    0.0000 C   0  0  0  0  0  0  0  0  0  0  0  0
    0.0000   -0.0000    0.0000 C   0  0  0  0  0  0  0  0  0  0  0  0
    0.7145    0.4125    0.0000 C   0  0  0  0  0  0  0  0  0  0  0  0
    1.4289   -0.0000    0.0000 C   0  0  0  0  0  0  0  0  0  0  0  0
    2.1434    0.4125    0.0000 N   0  0  0  0  0  0  0  0  0  0  0  0
   -1.4289   -0.8250    0.0000 C   0  0  0  0  0  0  0  0  0  0  0  0
   -2.1434   -1.2375    0.0000 C   0  0  0  0  0  0  0  0  0  0  0  0
   -2.1434   -2.0625    0.0000 C   0  0  0  0  0  0  0  0  0  0  0  0
   -1.4289   -2.4750    0.0000 C   0  0  0  0  0  0  0  0  0  0  0  0
   -0.7145   -2.0625    0.0000 C   0  0  0  0  0  0  0  0  0  0  0  0
   -0.7145   -1.2375    0.0000 C   0  0  0  0  0  0  0  0  0  0  0  0
    0.0000   -0.8250    0.0000 N   0  0  0  0  0  0  0  0  0  0  0  0
    0.7145   -1.2375    0.0000 C   0  0  0  0  0  0  0  0  0  0  0  0
    0.7145   -2.0625    0.0000 C   0  0  0  0  0  0  0  0  0  0  0  0
   -0.0000   -2.4750    0.0000 C   0  0  0  0  0  0  0  0  0  0  0  0
  1  2  2  0
  2  3  1  0
  3  4  2  0
  4  5  1  0
  5  6  2  0
  1  6  1  0
  5  7  1  0
  7  8  1  0
  8  9  2  0
  4  9  1  0
  8 10  1  0
 10 11  1  0
 11 12  1  0
 12 13  1  0
 13 14  1  0
 14 15  1  0
 15 16  1  0
 17 11  1  6
 17 18  1  0
 18 19  1  0
 19 20  1  0
 20 21  1  0
 21 22  2  0
 17 22  1  0
 22 23  1  0
 23 24  2  0
 24 25  1  0
 25 26  2  0
 21 26  1  0
M  END
>  <DATABASE_ID>  (1) 
DB05501

>  <DATABASE_NAME>  (1) 
drugbank

>  <SMILES>  (1) 
NCCCCN(CC1=NC2=CC=CC=C2N1)[C@H]1CCCC2=C1N=CC=C2

>  <INCHI_IDENTIFIER>  (1) 
InChI=1S/C21H27N5/c22-12-3-4-14-26(15-20-24-17-9-1-2-10-18(17)25-20)19-11-5-7-16-8-6-13-23-21(16)19/h1-2,6,8-10,13,19H,3-5,7,11-12,14-15,22H2,(H,24,25)/t19-/m0/s1

>  <INCHI_KEY>  (1) 
WVLHHLRVNDMIAR-IBGZPJMESA-N

>  <FORMULA>  (1) 
C21H27N5

>  <MOLECULAR_WEIGHT>  (1) 
349.482

>  <EXACT_MASS>  (1) 
349.226645889

>  <JCHEM_ACCEPTOR_COUNT>  (1) 
4

>  <JCHEM_ATOM_COUNT>  (1) 
53

>  <JCHEM_AVERAGE_POLARIZABILITY>  (1) 
41.005054385174226

>  <JCHEM_BIOAVAILABILITY>  (1) 
1

>  <JCHEM_DONOR_COUNT>  (1) 
2

>  <JCHEM_FORMAL_CHARGE>  (1) 
0

>  <JCHEM_GHOSE_FILTER>  (1) 
1

>  <JCHEM_IUPAC>  (1) 
(8S)-N-(4-aminobutyl)-N-[(1H-1,3-benzodiazol-2-yl)methyl]-5,6,7,8-tetrahydroquinolin-8-amine

>  <ALOGPS_LOGP>  (1) 
2.61

>  <JCHEM_LOGP>  (1) 
2.6122337468833403

>  <ALOGPS_LOGS>  (1) 
-4.09

>  <JCHEM_MDDR_LIKE_RULE>  (1) 
1

>  <JCHEM_NUMBER_OF_RINGS>  (1) 
4

>  <JCHEM_PHYSIOLOGICAL_CHARGE>  (1) 
2

>  <JCHEM_PKA_STRONGEST_ACIDIC>  (1) 
11.502338917180023

>  <JCHEM_PKA_STRONGEST_BASIC>  (1) 
10.18208763120126

>  <JCHEM_POLAR_SURFACE_AREA>  (1) 
70.83

>  <JCHEM_REFRACTIVITY>  (1) 
104.4884

>  <JCHEM_ROTATABLE_BOND_COUNT>  (1) 
7

>  <JCHEM_RULE_OF_FIVE>  (1) 
1

>  <ALOGPS_SOLUBILITY>  (1) 
2.84e-02 g/l

>  <JCHEM_TRADITIONAL_IUPAC>  (1) 
(8S)-N-(4-aminobutyl)-N-(1H-1,3-benzodiazol-2-ylmethyl)-5,6,7,8-tetrahydroquinolin-8-amine

>  <JCHEM_VEBER_RULE>  (1) 
0

>  <DRUGBANK_ID>  (1) 
DB05501

>  <DRUG_GROUPS>  (1) 
approved; investigational

>  <GENERIC_NAME>  (1) 
Mavorixafor

>  <SYNONYMS>  (1) 
1,4-BUTANEDIAMINE, N-(1H-BENZIMIDAZOL-2-YLMETHYL)-N-((8S)-5,6,7,8-TETRAHYDRO-8-QUINOLINYL)-; 1,4-BUTANEDIAMINE, N1-(1H-BENZIMIDAZOL-2-YLMETHYL)-N1-((8S)-5,6,7,8-TETRAHYDRO-8-QUINOLINYL)-; CXCR4 INHIBITOR X4P-001; N1-(1H-BENZIMIDAZOL-2-YLMETHYL)-N1-((S)-5,6,7,8-TETRAHYDROQUINOLIN-8-YL)-BUTANE-1,4-DIAMINE

>  <PRODUCTS>  (1) 
Xolremdi

$$$$
