
     RDKit          2D

  0  0  0  0  0  0  0  0  0  0999 V3000
M  V30 BEGIN CTAB
M  V30 COUNTS 14 14 0 0 0
M  V30 BEGIN ATOM
M  V30 1 O 0.722600 -0.135300 0.000000 0
M  V30 2 O -0.612200 -0.135200 0.000000 0
M  V30 3 C -0.357300 -0.919900 0.000000 0
M  V30 4 C 0.467700 -0.919900 0.000000 0
M  V30 5 O -0.842400 -1.587200 0.000000 0
M  V30 6 Pt 0.055200 0.349600 0.000000 0 VAL=4
M  V30 7 H 0.769700 1.587200 0.000000 0
M  V30 8 H 1.484200 0.349600 0.000000 0
M  V30 9 N 0.769700 0.762100 0.000000 0
M  V30 10 H 1.182200 1.476600 0.000000 0
M  V30 11 H -0.659200 1.587200 0.000000 0
M  V30 12 H -1.373700 0.349600 0.000000 0
M  V30 13 N -0.659200 0.762100 0.000000 0
M  V30 14 H -1.484200 0.762100 0.000000 0
M  V30 END ATOM
M  V30 BEGIN BOND
M  V30 1 1 2 3
M  V30 2 1 3 4
M  V30 3 1 4 1
M  V30 4 1 1 6
M  V30 5 1 6 2
M  V30 6 2 3 5
M  V30 7 9 13 6
M  V30 8 9 9 6
M  V30 9 1 9 7
M  V30 10 1 9 8
M  V30 11 1 9 10
M  V30 12 1 13 11
M  V30 13 1 13 12
M  V30 14 1 13 14
M  V30 END BOND
M  V30 END CTAB
M  END
>  <DATABASE_ID>  (1) 
DB13145

>  <DATABASE_NAME>  (1) 
drugbank

>  <SMILES>  (1) 
[H][N]([H])([H])[Pt]1(OCC(=O)O1)[N]([H])([H])[H]

>  <INCHI_IDENTIFIER>  (1) 
InChI=1S/C2H3O3.2H3N.Pt/c3-1-2(4)5;;;/h1H2,(H,4,5);2*1H3;/q-1;;;+2/p-1

>  <INCHI_KEY>  (1) 
GYAVMUDJCHAASE-UHFFFAOYSA-M

>  <FORMULA>  (1) 
C2H8N2O3Pt

>  <MOLECULAR_WEIGHT>  (1) 
303.181

>  <EXACT_MASS>  (1) 
303.018284

>  <JCHEM_ACCEPTOR_COUNT>  (1) 
0

>  <JCHEM_ATOM_COUNT>  (1) 
16

>  <JCHEM_AVERAGE_POLARIZABILITY>  (1) 
11.4960298484508

>  <JCHEM_BIOAVAILABILITY>  (1) 
1

>  <JCHEM_DONOR_COUNT>  (1) 
0

>  <JCHEM_FORMAL_CHARGE>  (1) 
0

>  <JCHEM_GHOSE_FILTER>  (1) 
0

>  <JCHEM_IUPAC>  (1) 
2,2-diamino-1,3-dioxa-2-platinacyclopentan-4-one

>  <ALOGPS_LOGP>  (1) 
-0.84

>  <ALOGPS_LOGS>  (1) 
-0.35

>  <JCHEM_MDDR_LIKE_RULE>  (1) 
0

>  <JCHEM_NUMBER_OF_RINGS>  (1) 
1

>  <JCHEM_PHYSIOLOGICAL_CHARGE>  (1) 
0

>  <JCHEM_POLAR_SURFACE_AREA>  (1) 
90.81

>  <JCHEM_REFRACTIVITY>  (1) 
43.2337

>  <JCHEM_ROTATABLE_BOND_COUNT>  (1) 
0

>  <JCHEM_RULE_OF_FIVE>  (1) 
0

>  <ALOGPS_SOLUBILITY>  (1) 
1.38e+02 g/l

>  <JCHEM_TRADITIONAL_IUPAC>  (1) 
2,2-diamino-1,3-dioxa-2-platinacyclopentan-4-one

>  <JCHEM_VEBER_RULE>  (1) 
0

>  <DRUGBANK_ID>  (1) 
DB13145

>  <DRUG_GROUPS>  (1) 
approved; investigational

>  <GENERIC_NAME>  (1) 
Nedaplatin

>  <SYNONYMS>  (1) 
(glycolato-O,O')diammineplatinum(II); CDGP; cis-Diammine (glycolato)platinum; cis-diammine(glycolato)platinum; cis-Diammine(glycolato)platinum(II); Nedaplatin

>  <INTERNATIONAL_BRANDS>  (1) 
Aqupla

$$$$
