
     RDKit          2D

  1  0  0  0  0  0  0  0  0  0999 V2000
    0.0000    0.0000    0.0000 Y   0  0  0  0  0 15  0  0  0  0  0  0
M  ISO  1   1  90
M  END
>  <DATABASE_ID>  (1) 
DB13076

>  <DATABASE_NAME>  (1) 
drugbank

>  <SMILES>  (1) 
[90Y]

>  <INCHI_IDENTIFIER>  (1) 
InChI=1S/Y/i1+1

>  <INCHI_KEY>  (1) 
VWQVUPCCIRVNHF-OUBTZVSYSA-N

>  <FORMULA>  (1) 
Y

>  <MOLECULAR_WEIGHT>  (1) 
89.9072

>  <EXACT_MASS>  (1) 
89.907151443

>  <JCHEM_ACCEPTOR_COUNT>  (1) 
0

>  <JCHEM_ATOM_COUNT>  (1) 
1

>  <JCHEM_AVERAGE_POLARIZABILITY>  (1) 
1.7784

>  <JCHEM_BIOAVAILABILITY>  (1) 
1

>  <JCHEM_DONOR_COUNT>  (1) 
0

>  <JCHEM_FORMAL_CHARGE>  (1) 
0

>  <JCHEM_GHOSE_FILTER>  (1) 
0

>  <JCHEM_IUPAC>  (1) 
(90Y)yttrium

>  <JCHEM_LOGP>  (1) 
0.0

>  <JCHEM_MDDR_LIKE_RULE>  (1) 
0

>  <JCHEM_NUMBER_OF_RINGS>  (1) 
0

>  <JCHEM_PHYSIOLOGICAL_CHARGE>  (1) 
0

>  <JCHEM_POLAR_SURFACE_AREA>  (1) 
0.0

>  <JCHEM_REFRACTIVITY>  (1) 
0.0

>  <JCHEM_ROTATABLE_BOND_COUNT>  (1) 
0

>  <JCHEM_RULE_OF_FIVE>  (1) 
1

>  <JCHEM_TRADITIONAL_IUPAC>  (1) 
(90Y)yttrium

>  <JCHEM_VEBER_RULE>  (1) 
1

>  <DRUGBANK_ID>  (1) 
DB13076

>  <DRUG_GROUPS>  (1) 
approved; investigational

>  <GENERIC_NAME>  (1) 
Yttrium Y-90

>  <SYNONYMS>  (1) 
Y-90; Y90; Yttrium (90 Y); Yttrium (90Y); Yttrium Y 90; Yttrium Y-90; Yttrium-90

>  <PRODUCTS>  (1) 
Ytracis; Yttriga

>  <SALTS>  (1) 
Yttrium-90 chloride; Yttrium-90 citrate

$$$$
