
     RDKit          2D

 46 47  0  0  0  0  0  0  0  0999 V2000
   -3.9295   -0.8249    0.0000 N   0  0  0  0  0  0  0  0  0  0  0  0
   -3.2150   -0.4124    0.0000 C   0  0  0  0  0  0  0  0  0  0  0  0
   -2.5006   -0.8249    0.0000 C   0  0  0  0  0  0  0  0  0  0  0  0
   -1.7861   -0.4124    0.0000 N   0  0  0  0  0  0  0  0  0  0  0  0
   -1.0716   -0.8249    0.0000 C   0  0  0  0  0  0  0  0  0  0  0  0
   -0.3572   -0.4124    0.0000 C   0  0  0  0  0  0  0  0  0  0  0  0
    0.3572   -0.8249    0.0000 N   0  0  0  0  0  0  0  0  0  0  0  0
    1.0717   -0.4124    0.0000 C   0  0  0  0  0  0  0  0  0  0  0  0
    1.7862   -0.8249    0.0000 C   0  0  0  0  0  0  0  0  0  0  0  0
    2.5006   -0.4124    0.0000 N   0  0  0  0  0  0  0  0  0  0  0  0
    3.2151   -0.8249    0.0000 C   0  0  0  0  0  0  0  0  0  0  0  0
    3.9296   -0.4124    0.0000 C   0  0  0  0  0  0  0  0  0  0  0  0
    4.6440   -0.8249    0.0000 N   0  0  0  0  0  0  0  0  0  0  0  0
   -3.2150    0.4125    0.0000 C   0  0  0  0  0  0  0  0  0  0  0  0
   -3.9295    0.8250    0.0000 C   0  0  0  0  0  0  0  0  0  0  0  0
   -3.9295    1.6500    0.0000 C   0  0  0  0  0  0  0  0  0  0  0  0
   -4.6440    2.0625    0.0000 N   0  0  0  0  0  0  0  0  0  0  0  0
   -4.6440    2.8875    0.0000 C   0  0  0  0  0  0  0  0  0  0  0  0
   -5.3585    3.3000    0.0000 N   0  0  0  0  0  0  0  0  0  0  0  0
   -3.9295    3.3000    0.0000 N   0  0  0  0  0  0  0  0  0  0  0  0
   -2.5006   -1.6499    0.0000 O   0  0  0  0  0  0  0  0  0  0  0  0
   -1.0716   -1.6499    0.0000 C   0  0  0  0  0  0  0  0  0  0  0  0
   -0.3572   -2.0624    0.0000 C   0  0  0  0  0  0  0  0  0  0  0  0
   -0.3572   -2.8874    0.0000 C   0  0  0  0  0  0  0  0  0  0  0  0
    0.3572   -3.3000    0.0000 C   0  0  0  0  0  0  0  0  0  0  0  0
    1.0717   -2.8874    0.0000 C   0  0  0  0  0  0  0  0  0  0  0  0
    1.0717   -2.0623    0.0000 C   0  0  0  0  0  0  0  0  0  0  0  0
    0.3572   -1.6498    0.0000 C   0  0  0  0  0  0  0  0  0  0  0  0
    0.9406   -1.0665    0.0000 C   0  0  0  0  0  0  0  0  0  0  0  0
    1.7862   -3.3000    0.0000 O   0  0  0  0  0  0  0  0  0  0  0  0
   -1.0716   -3.3000    0.0000 C   0  0  0  0  0  0  0  0  0  0  0  0
   -0.3572    0.4125    0.0000 O   0  0  0  0  0  0  0  0  0  0  0  0
    1.0717    0.4125    0.0000 C   0  0  0  0  0  0  0  0  0  0  0  0
    1.7862    0.8250    0.0000 C   0  0  0  0  0  0  0  0  0  0  0  0
    1.7862    1.6500    0.0000 C   0  0  0  0  0  0  0  0  0  0  0  0
    2.5006    2.0625    0.0000 C   0  0  0  0  0  0  0  0  0  0  0  0
    2.5006    2.8875    0.0000 N   0  0  0  0  0  0  0  0  0  0  0  0
    1.7862   -1.6499    0.0000 O   0  0  0  0  0  0  0  0  0  0  0  0
    3.2151   -1.6499    0.0000 C   0  0  0  0  0  0  0  0  0  0  0  0
    3.9296   -2.0624    0.0000 C   0  0  0  0  0  0  0  0  0  0  0  0
    3.9296   -2.8874    0.0000 C   0  0  0  0  0  0  0  0  0  0  0  0
    4.6440   -3.3000    0.0000 C   0  0  0  0  0  0  0  0  0  0  0  0
    5.3585   -2.8874    0.0000 C   0  0  0  0  0  0  0  0  0  0  0  0
    5.3585   -2.0623    0.0000 C   0  0  0  0  0  0  0  0  0  0  0  0
    4.6441   -1.6498    0.0000 C   0  0  0  0  0  0  0  0  0  0  0  0
    3.9296    0.4125    0.0000 O   0  0  0  0  0  0  0  0  0  0  0  0
  2  1  1  6
  2  3  1  0
  3  4  1  0
  4  5  1  0
  5  6  1  0
  6  7  1  0
  7  8  1  0
  8  9  1  0
  9 10  1  0
 10 11  1  0
 11 12  1  0
 12 13  1  0
  2 14  1  0
 14 15  1  0
 15 16  1  0
 16 17  1  0
 17 18  1  0
 18 19  1  0
 18 20  2  0
  3 21  2  0
  5 22  1  6
 22 23  1  0
 23 24  2  0
 23 28  1  0
 24 25  1  0
 25 26  2  0
 26 27  1  0
 27 28  2  0
 28 29  1  0
 26 30  1  0
 24 31  1  0
  6 32  2  0
  8 33  1  1
 33 34  1  0
 34 35  1  0
 35 36  1  0
 36 37  1  0
  9 38  2  0
 11 39  1  6
 39 40  1  0
 40 41  2  0
 40 45  1  0
 41 42  1  0
 42 43  2  0
 43 44  1  0
 44 45  2  0
 12 46  2  0
M  END
>  <DATABASE_ID>  (1) 
DB11981

>  <DATABASE_NAME>  (1) 
drugbank

>  <SMILES>  (1) 
CC1=CC(O)=CC(C)=C1C[C@H](NC(=O)[C@H](N)CCCNC(N)=N)C(=O)N[C@@H](CCCCN)C(=O)N[C@@H](CC1=CC=CC=C1)C(N)=O

>  <INCHI_IDENTIFIER>  (1) 
InChI=1S/C32H49N9O5/c1-19-15-22(42)16-20(2)23(19)18-27(41-29(44)24(34)11-8-14-38-32(36)37)31(46)39-25(12-6-7-13-33)30(45)40-26(28(35)43)17-21-9-4-3-5-10-21/h3-5,9-10,15-16,24-27,42H,6-8,11-14,17-18,33-34H2,1-2H3,(H2,35,43)(H,39,46)(H,40,45)(H,41,44)(H4,36,37,38)/t24-,25+,26+,27+/m1/s1

>  <INCHI_KEY>  (1) 
SFVLTCAESLKEHH-WKAQUBQDSA-N

>  <FORMULA>  (1) 
C32H49N9O5

>  <MOLECULAR_WEIGHT>  (1) 
639.802

>  <EXACT_MASS>  (1) 
639.385665714

>  <JCHEM_ACCEPTOR_COUNT>  (1) 
10

>  <JCHEM_ATOM_COUNT>  (1) 
95

>  <JCHEM_AVERAGE_POLARIZABILITY>  (1) 
69.7443712164535

>  <JCHEM_BIOAVAILABILITY>  (1) 
0

>  <JCHEM_DONOR_COUNT>  (1) 
10

>  <JCHEM_FORMAL_CHARGE>  (1) 
0

>  <JCHEM_GHOSE_FILTER>  (1) 
0

>  <JCHEM_IUPAC>  (1) 
(2S)-6-amino-2-[(2S)-2-[(2R)-2-amino-5-carbamimidamidopentanamido]-3-(4-hydroxy-2,6-dimethylphenyl)propanamido]-N-[(1S)-1-carbamoyl-2-phenylethyl]hexanamide

>  <ALOGPS_LOGP>  (1) 
-0.12

>  <JCHEM_LOGP>  (1) 
-0.5105996971719258

>  <ALOGPS_LOGS>  (1) 
-4.62

>  <JCHEM_MDDR_LIKE_RULE>  (1) 
0

>  <JCHEM_NUMBER_OF_RINGS>  (1) 
2

>  <JCHEM_PHYSIOLOGICAL_CHARGE>  (1) 
3

>  <JCHEM_PKA>  (1) 
12.363515653733339

>  <JCHEM_PKA_STRONGEST_ACIDIC>  (1) 
9.617799971280286

>  <JCHEM_PKA_STRONGEST_BASIC>  (1) 
11.841235346785277

>  <JCHEM_POLAR_SURFACE_AREA>  (1) 
264.56

>  <JCHEM_REFRACTIVITY>  (1) 
186.25099999999998

>  <JCHEM_ROTATABLE_BOND_COUNT>  (1) 
19

>  <JCHEM_RULE_OF_FIVE>  (1) 
0

>  <ALOGPS_SOLUBILITY>  (1) 
1.55e-02 g/l

>  <JCHEM_TRADITIONAL_IUPAC>  (1) 
elamipretide

>  <JCHEM_VEBER_RULE>  (1) 
0

>  <DRUGBANK_ID>  (1) 
DB11981

>  <DRUG_GROUPS>  (1) 
approved; investigational

>  <GENERIC_NAME>  (1) 
Elamipretide

>  <SYNONYMS>  (1) 
Elamipretide

>  <PRODUCTS>  (1) 
Forzinity

>  <SALTS>  (1) 
Elamipretide hydrochloride

$$$$
