
     RDKit          2D

 28 31  0  0  1  0  0  0  0  0999 V2000
    1.8036   -0.1138    0.0000 C   0  0  0  0  0  0  0  0  0  0  0  0
    0.3045   -1.0964    0.0000 C   0  0  0  0  0  0  0  0  0  0  0  0
    1.8036    1.2211    0.0000 C   0  0  0  0  0  0  0  0  0  0  0  0
    0.3045    1.3786    0.0000 C   0  0  0  0  0  0  0  0  0  0  0  0
    2.2885    0.5536    0.0000 C   0  0  0  0  0  0  0  0  0  0  0  0
   -1.1245   -0.2714    0.0000 C   0  0  0  0  0  0  0  0  0  0  0  0
   -0.4100    0.9661    0.0000 C   0  0  0  0  0  0  0  0  0  0  0  0
   -0.4100   -1.5089    0.0000 C   0  0  0  0  0  0  0  0  0  0  0  0
   -1.1245   -1.0964    0.0000 C   0  0  0  0  0  0  0  0  0  0  0  0
   -1.8390    0.1411    0.0000 C   0  0  0  0  0  0  0  0  0  0  0  0
   -1.8390   -1.5089    0.0000 C   0  0  0  0  0  0  0  0  0  0  0  0
   -2.5534   -0.2714    0.0000 C   0  0  0  0  0  0  0  0  0  0  0  0
    0.3045   -0.2714    0.0000 C   0  0  0  0  0  0  0  0  0  0  0  0
    0.3045    0.5536    0.0000 H   0  0  0  0  0  0  0  0  0  0  0  0
   -0.4100    0.1411    0.0000 C   0  0  0  0  0  0  0  0  0  0  0  0
   -0.4100   -0.6839    0.0000 H   0  0  0  0  0  0  0  0  0  0  0  0
    1.0189    0.9661    0.0000 C   0  0  0  0  0  0  0  0  0  0  0  0
    1.0189    1.7911    0.0000 C   0  0  0  0  0  0  0  0  0  0  0  0
    1.0189    0.1411    0.0000 C   0  0  0  0  0  0  0  0  0  0  0  0
    1.0189   -0.6839    0.0000 H   0  0  0  0  0  0  0  0  0  0  0  0
   -3.2679   -1.5089    0.0000 O   0  0  0  0  0  0  0  0  0  0  0  0
   -2.5534   -1.0964    0.0000 C   0  0  0  0  0  0  0  0  0  0  0  0
   -1.1245    0.5536    0.0000 H   0  0  0  0  0  0  0  0  0  0  0  0
    2.5181    1.6336    0.0000 C   0  0  0  0  0  0  0  0  0  0  0  0
    1.8036    2.0461    0.0000 O   0  0  0  0  0  0  0  0  0  0  0  0
    0.3044    2.2036    0.0000 C   0  0  0  0  0  0  0  0  0  0  0  0
    3.2325    2.0461    0.0000 C   0  0  0  0  0  0  0  0  0  0  0  0
   -1.1245    1.3786    0.0000 C   0  0  0  0  0  0  0  0  0  0  0  0
 19 13  1  0
 19 17  1  0
 19  1  1  0
 13 15  1  0
 13  2  1  0
 17  3  1  0
 17  4  1  0
  5  1  1  0
 15  6  1  0
 15  7  1  0
  2  8  1  0
  6  9  1  0
  6 10  1  0
  9 11  2  0
 10 12  1  0
 11 22  1  0
  3  5  1  0
  4  7  1  0
  8  9  1  0
 12 22  1  0
 13 14  1  1
 15 16  1  6
 17 18  1  1
 19 20  1  6
 22 21  2  0
  6 23  1  1
  3 24  1  0
  3 25  1  1
 18 26  1  0
 24 27  3  0
  7 28  2  0
M  END
>  <DATABASE_ID>  (1) 
DB00294

>  <DATABASE_NAME>  (1) 
drugbank

>  <SMILES>  (1) 
[H][C@@]12CC[C@@](O)(C#C)[C@@]1(CC)CC(=C)[C@]1([H])[C@@]3([H])CCC(=O)C=C3CC[C@@]21[H]

>  <INCHI_IDENTIFIER>  (1) 
InChI=1S/C22H28O2/c1-4-21-13-14(3)20-17-9-7-16(23)12-15(17)6-8-18(20)19(21)10-11-22(21,24)5-2/h2,12,17-20,24H,3-4,6-11,13H2,1H3/t17-,18-,19-,20+,21-,22-/m0/s1

>  <INCHI_KEY>  (1) 
GCKFUYQCUCGESZ-BPIQYHPVSA-N

>  <FORMULA>  (1) 
C22H28O2

>  <MOLECULAR_WEIGHT>  (1) 
324.4565

>  <EXACT_MASS>  (1) 
324.20893014

>  <JCHEM_ACCEPTOR_COUNT>  (1) 
2

>  <JCHEM_ATOM_COUNT>  (1) 
52

>  <JCHEM_AVERAGE_NEUTRAL_MICROSPECIES_CHARGE>  (1) 
3.221911274388983e-09

>  <JCHEM_AVERAGE_POLARIZABILITY>  (1) 
37.83461917875536

>  <JCHEM_BIOAVAILABILITY>  (1) 
1

>  <JCHEM_DONOR_COUNT>  (1) 
1

>  <JCHEM_FORMAL_CHARGE>  (1) 
0

>  <JCHEM_GHOSE_FILTER>  (1) 
1

>  <JCHEM_IUPAC>  (1) 
(1R,3aS,3bS,9aR,9bS,11aS)-11a-ethyl-1-ethynyl-1-hydroxy-10-methylidene-1H,2H,3H,3aH,3bH,4H,5H,7H,8H,9H,9aH,9bH,10H,11H,11aH-cyclopenta[a]phenanthren-7-one

>  <ALOGPS_LOGP>  (1) 
3.19

>  <JCHEM_LOGP>  (1) 
3.6011698876666673

>  <ALOGPS_LOGS>  (1) 
-4.64

>  <JCHEM_MDDR_LIKE_RULE>  (1) 
0

>  <JCHEM_NEUTRAL_CHARGE>  (1) 
0

>  <JCHEM_NUMBER_OF_RINGS>  (1) 
4

>  <JCHEM_PHYSIOLOGICAL_CHARGE>  (1) 
0

>  <JCHEM_PKA>  (1) 
18.220871851446592

>  <JCHEM_PKA_STRONGEST_ACIDIC>  (1) 
17.993504322233708

>  <JCHEM_PKA_STRONGEST_BASIC>  (1) 
-1.4892071320038958

>  <JCHEM_POLAR_SURFACE_AREA>  (1) 
37.3

>  <JCHEM_REFRACTIVITY>  (1) 
96.35159999999998

>  <JCHEM_ROTATABLE_BOND_COUNT>  (1) 
1

>  <JCHEM_RULE_OF_FIVE>  (1) 
1

>  <ALOGPS_SOLUBILITY>  (1) 
7.37e-03 g/l

>  <JCHEM_TRADITIONAL_IUPAC>  (1) 
biotin

>  <JCHEM_VEBER_RULE>  (1) 
1

>  <DRUGBANK_ID>  (1) 
DB00294

>  <SECONDARY_ACCESSION_NUMBERS>  (1) 
APRD00766

>  <DRUG_GROUPS>  (1) 
approved; investigational

>  <GENERIC_NAME>  (1) 
Etonogestrel

>  <SYNONYMS>  (1) 
3-Ketodesogestrel; 3-Oxodesogestrel; étonogestrel; Etonogestrel; Etonogestrelum

>  <PRODUCTS>  (1) 
EluRyng; EnilloRing; Etonogestrel and Ethinyl Estradiol; Etonogestrel and Ethinyl Estradiol Vaginal; Etonogestrel and Ethinyl Estradiol Vaginal Ring; Etonogestrel/Ethinyl Estradiol; Haloette; Implanon; Nexplanon; NuvaRing; Nuvaring

$$$$
