
     RDKit          2D

 26 28  0  0  0  0  0  0  0  0999 V2000
   -3.7314    0.2537    0.0000 C   0  0  0  0  0  0  0  0  0  0  0  0
   -4.4460   -0.1587    0.0000 C   0  0  0  0  0  0  0  0  0  0  0  0
   -4.4460   -0.9837    0.0000 C   0  0  0  0  0  0  0  0  0  0  0  0
   -3.7314   -1.3962    0.0000 C   0  0  0  0  0  0  0  0  0  0  0  0
   -3.0169   -0.9837    0.0000 C   0  0  0  0  0  0  0  0  0  0  0  0
   -3.0169   -0.1587    0.0000 C   0  0  0  0  0  0  0  0  0  0  0  0
   -3.7314   -2.2212    0.0000 Cl  0  0  0  0  0  0  0  0  0  0  0  0
   -2.3025    0.2537    0.0000 N   0  0  0  0  0  0  0  0  0  0  0  0
   -1.5879   -0.1587    0.0000 C   0  0  0  0  0  0  0  0  0  0  0  0
   -0.8735    0.2537    0.0000 C   0  0  0  0  0  0  0  0  0  0  0  0
   -0.8735    1.0787    0.0000 N   0  0  0  0  0  0  0  0  0  0  0  0
   -1.5879    1.4912    0.0000 C   0  0  0  0  0  0  0  0  0  0  0  0
   -2.3025    1.0787    0.0000 C   0  0  0  0  0  0  0  0  0  0  0  0
   -0.1590    1.4912    0.0000 C   0  0  0  0  0  0  0  0  0  0  0  0
    0.5554    1.0787    0.0000 C   0  0  0  0  0  0  0  0  0  0  0  0
    1.2698    1.4912    0.0000 C   0  0  0  0  0  0  0  0  0  0  0  0
    1.9843    1.0787    0.0000 N   0  0  0  0  0  0  0  0  0  0  0  0
    2.0706    0.2582    0.0000 N   0  0  0  0  0  0  0  0  0  0  0  0
    2.8775    0.0867    0.0000 C   0  0  0  0  0  0  0  0  0  0  0  0
    3.2900    0.8012    0.0000 N   0  0  0  0  0  0  0  0  0  0  0  0
    2.7380    1.4142    0.0000 C   0  0  0  0  0  0  0  0  0  0  0  0
    2.9095    2.2212    0.0000 O   0  0  0  0  0  0  0  0  0  0  0  0
    4.1105    0.8874    0.0000 C   0  0  0  0  0  0  0  0  0  0  0  0
    4.4460    1.6411    0.0000 C   0  0  0  0  0  0  0  0  0  0  0  0
    3.2131   -0.6669    0.0000 C   0  0  0  0  0  0  0  0  0  0  0  0
    4.0335   -0.7531    0.0000 C   0  0  0  0  0  0  0  0  0  0  0  0
  1  2  2  0
  1  6  1  0
  2  3  1  0
  3  4  2  0
  4  5  1  0
  5  6  2  0
  4  7  1  0
  6  8  1  0
  8  9  1  0
 13  8  1  0
  9 10  1  0
 10 11  1  0
 11 12  1  0
 12 13  1  0
 11 14  1  0
 14 15  1  0
 15 16  1  0
 16 17  1  0
 17 18  1  0
 17 21  1  0
 18 19  2  0
 19 20  1  0
 20 21  1  0
 21 22  2  0
 20 23  1  0
 23 24  1  0
 19 25  1  0
 25 26  1  0
M  END
>  <DATABASE_ID>  (1) 
DB09194

>  <DATABASE_NAME>  (1) 
drugbank

>  <SMILES>  (1) 
CCN1C(=O)N(CCCN2CCN(CC2)C2=CC=CC(Cl)=C2)N=C1CC

>  <INCHI_IDENTIFIER>  (1) 
InChI=1S/C19H28ClN5O/c1-3-18-21-25(19(26)24(18)4-2)10-6-9-22-11-13-23(14-12-22)17-8-5-7-16(20)15-17/h5,7-8,15H,3-4,6,9-14H2,1-2H3

>  <INCHI_KEY>  (1) 
IZBNNCFOBMGTQX-UHFFFAOYSA-N

>  <FORMULA>  (1) 
C19H28ClN5O

>  <MOLECULAR_WEIGHT>  (1) 
377.92

>  <EXACT_MASS>  (1) 
377.1982382

>  <JCHEM_ACCEPTOR_COUNT>  (1) 
4

>  <JCHEM_ATOM_COUNT>  (1) 
54

>  <JCHEM_AVERAGE_POLARIZABILITY>  (1) 
42.23032908147728

>  <JCHEM_BIOAVAILABILITY>  (1) 
1

>  <JCHEM_DONOR_COUNT>  (1) 
0

>  <JCHEM_FORMAL_CHARGE>  (1) 
0

>  <JCHEM_GHOSE_FILTER>  (1) 
1

>  <JCHEM_IUPAC>  (1) 
1-{3-[4-(3-chlorophenyl)piperazin-1-yl]propyl}-3,4-diethyl-4,5-dihydro-1H-1,2,4-triazol-5-one

>  <ALOGPS_LOGP>  (1) 
2.81

>  <JCHEM_LOGP>  (1) 
3.365726241999999

>  <ALOGPS_LOGS>  (1) 
-2.95

>  <JCHEM_MDDR_LIKE_RULE>  (1) 
1

>  <JCHEM_NUMBER_OF_RINGS>  (1) 
3

>  <JCHEM_PHYSIOLOGICAL_CHARGE>  (1) 
1

>  <JCHEM_PKA_STRONGEST_BASIC>  (1) 
7.088044376722874

>  <JCHEM_POLAR_SURFACE_AREA>  (1) 
42.39

>  <JCHEM_REFRACTIVITY>  (1) 
106.57239999999999

>  <JCHEM_ROTATABLE_BOND_COUNT>  (1) 
7

>  <JCHEM_RULE_OF_FIVE>  (1) 
1

>  <ALOGPS_SOLUBILITY>  (1) 
4.25e-01 g/l

>  <JCHEM_TRADITIONAL_IUPAC>  (1) 
etoperidone

>  <JCHEM_VEBER_RULE>  (1) 
0

>  <DRUGBANK_ID>  (1) 
DB09194

>  <DRUG_GROUPS>  (1) 
approved; withdrawn

>  <GENERIC_NAME>  (1) 
Etoperidone

>  <SYNONYMS>  (1) 
Etoperidone

>  <INTERNATIONAL_BRANDS>  (1) 
Axiomin; Depracer; Etoran; Staff

>  <SALTS>  (1) 
Etoperidone hydrochloride

$$$$
