
     RDKit          2D

  1  0  0  0  0  0  0  0  0  0999 V2000
    0.0000    0.0000    0.0000 K   0  0  0  0  0 15  0  0  0  0  0  0
M  CHG  1   1   1
M  END
>  <DATABASE_ID>  (1) 
DB01345

>  <DATABASE_NAME>  (1) 
drugbank

>  <SMILES>  (1) 
[K+]

>  <INCHI_IDENTIFIER>  (1) 
InChI=1S/K/q+1

>  <INCHI_KEY>  (1) 
NPYPAHLBTDXSSS-UHFFFAOYSA-N

>  <FORMULA>  (1) 
K

>  <MOLECULAR_WEIGHT>  (1) 
39.0983

>  <EXACT_MASS>  (1) 
38.963706861

>  <JCHEM_ACCEPTOR_COUNT>  (1) 
0

>  <JCHEM_ATOM_COUNT>  (1) 
1

>  <JCHEM_AVERAGE_POLARIZABILITY>  (1) 
1.7784

>  <JCHEM_BIOAVAILABILITY>  (1) 
1

>  <JCHEM_DONOR_COUNT>  (1) 
0

>  <JCHEM_FORMAL_CHARGE>  (1) 
1

>  <JCHEM_GHOSE_FILTER>  (1) 
0

>  <JCHEM_IUPAC>  (1) 
potassium(1+) ion

>  <JCHEM_LOGP>  (1) 
0.2

>  <JCHEM_MDDR_LIKE_RULE>  (1) 
0

>  <JCHEM_NUMBER_OF_RINGS>  (1) 
0

>  <JCHEM_PHYSIOLOGICAL_CHARGE>  (1) 
1

>  <JCHEM_PKA>  (1) 
3.55

>  <JCHEM_PKA_STRONGEST_ACIDIC>  (1) 
3.09

>  <JCHEM_POLAR_SURFACE_AREA>  (1) 
0.0

>  <JCHEM_REFRACTIVITY>  (1) 
0.0

>  <JCHEM_ROTATABLE_BOND_COUNT>  (1) 
0

>  <JCHEM_RULE_OF_FIVE>  (1) 
1

>  <JCHEM_TRADITIONAL_IUPAC>  (1) 
potassium(1+) ion

>  <JCHEM_VEBER_RULE>  (1) 
1

>  <DRUGBANK_ID>  (1) 
DB01345

>  <DRUG_GROUPS>  (1) 
approved

>  <GENERIC_NAME>  (1) 
Potassium cation

>  <SYNONYMS>  (1) 
Potassium (ion); Potassium cation; Potassium ion; potassium(1+); potassium(1+) ion; potassium(I) cation

>  <PRODUCTS>  (1) 
Rurina; Telom-X-gene

$$$$
