
     RDKit          2D

 10 10  0  0  0  0  0  0  0  0999 V2000
    1.9967    1.9393    0.0000 C   0  0  0  0  0  0  0  0  0  0  0  0
    1.9967    3.5893    0.0000 C   0  0  0  0  0  0  0  0  0  0  0  0
    0.1553   -0.1553    0.0000 C   0  0  0  0  0  0  0  0  0  0  0  0
    0.9803   -0.1553    0.0000 C   0  0  0  0  0  0  0  0  0  0  0  0
   -0.0997    0.6294    0.0000 C   0  0  0  0  0  0  0  0  0  0  0  0
    1.2352    0.6294    0.0000 C   0  0  0  0  0  0  0  0  0  0  0  0
    0.5678    1.9393    0.0000 C   0  0  0  0  0  0  0  0  0  0  0  0
    1.2822    2.3518    0.0000 C   0  0  0  0  0  0  0  0  0  0  0  0
    0.5678    1.1143    0.0000 C   0  0  0  0  0  0  0  0  0  0  0  0
    1.2822    3.1768    0.0000 N   0  0  0  0  0  0  0  0  0  0  0  0
  4  3  1  0
  5  3  1  0
  6  4  1  0
  8  1  1  0
  8  7  1  0
  9  5  1  0
  9  6  1  0
  9  7  1  0
 10  2  1  0
 10  8  1  0
M  END
>  <DATABASE_ID>  (1) 
DB08999

>  <DATABASE_NAME>  (1) 
drugbank

>  <SMILES>  (1) 
CNC(C)CC1CCCC1

>  <INCHI_IDENTIFIER>  (1) 
InChI=1S/C9H19N/c1-8(10-2)7-9-5-3-4-6-9/h8-10H,3-7H2,1-2H3

>  <INCHI_KEY>  (1) 
HFXKQSZZZPGLKQ-UHFFFAOYSA-N

>  <FORMULA>  (1) 
C9H19N

>  <MOLECULAR_WEIGHT>  (1) 
141.258

>  <EXACT_MASS>  (1) 
141.151749616

>  <JCHEM_ACCEPTOR_COUNT>  (1) 
1

>  <JCHEM_ATOM_COUNT>  (1) 
29

>  <JCHEM_AVERAGE_POLARIZABILITY>  (1) 
18.39844018267545

>  <JCHEM_BIOAVAILABILITY>  (1) 
1

>  <JCHEM_DONOR_COUNT>  (1) 
1

>  <JCHEM_FORMAL_CHARGE>  (1) 
0

>  <JCHEM_GHOSE_FILTER>  (1) 
0

>  <JCHEM_IUPAC>  (1) 
(1-cyclopentylpropan-2-yl)(methyl)amine

>  <ALOGPS_LOGP>  (1) 
2.86

>  <JCHEM_LOGP>  (1) 
2.260026091333333

>  <ALOGPS_LOGS>  (1) 
-2.47

>  <JCHEM_MDDR_LIKE_RULE>  (1) 
0

>  <JCHEM_NUMBER_OF_RINGS>  (1) 
1

>  <JCHEM_PHYSIOLOGICAL_CHARGE>  (1) 
1

>  <JCHEM_PKA_STRONGEST_BASIC>  (1) 
10.614016211465419

>  <JCHEM_POLAR_SURFACE_AREA>  (1) 
12.03

>  <JCHEM_REFRACTIVITY>  (1) 
44.9342

>  <JCHEM_ROTATABLE_BOND_COUNT>  (1) 
3

>  <JCHEM_RULE_OF_FIVE>  (1) 
1

>  <ALOGPS_SOLUBILITY>  (1) 
4.76e-01 g/l

>  <JCHEM_TRADITIONAL_IUPAC>  (1) 
sinos

>  <JCHEM_VEBER_RULE>  (1) 
1

>  <DRUGBANK_ID>  (1) 
DB08999

>  <DRUG_GROUPS>  (1) 
approved; withdrawn

>  <GENERIC_NAME>  (1) 
Cyclopentamine

>  <SYNONYMS>  (1) 
Cyclopentamine

>  <SALTS>  (1) 
Cyclopentamine hydrochloride

$$$$
