
     RDKit          2D

 18 19  0  0  1  0  0  0  0  0999 V2000
    0.7144    0.9328    0.0000 C   0  0  0  0  0  0  0  0  0  0  0  0
   -0.8974   -2.2416    0.0000 C   0  0  0  0  0  0  0  0  0  0  0  0
    0.6674   -0.7895    0.0000 C   0  0  0  0  0  0  0  0  0  0  0  0
    0.7144    1.7578    0.0000 C   0  0  0  0  0  0  0  0  0  0  0  0
    0.0000   -0.3046    0.0000 C   0  0  0  0  0  0  0  0  0  0  0  0
   -0.4125   -1.5742    0.0000 C   0  0  0  0  0  0  0  0  0  0  0  0
    0.0000    2.1703    0.0000 C   0  0  0  0  0  0  0  0  0  0  0  0
   -0.7144    0.9328    0.0000 C   0  0  0  0  0  0  0  0  0  0  0  0
    1.4289    2.1703    0.0000 F   0  0  0  0  0  0  0  0  0  0  0  0
    0.0000    2.9953    0.0000 N   0  0  0  0  0  0  0  0  0  0  0  0
   -0.7144    1.7578    0.0000 N   0  0  0  0  0  0  0  0  0  0  0  0
    0.0000    0.5203    0.0000 N   0  0  0  0  0  0  0  0  0  0  0  0
   -0.5618   -2.9953    0.0000 O   0  0  0  0  0  0  0  0  0  0  0  0
   -1.4289    0.5203    0.0000 O   0  0  0  0  0  0  0  0  0  0  0  0
   -0.6674   -0.7895    0.0000 O   0  0  0  0  0  0  0  0  0  0  0  0
    0.4125   -1.5742    0.0000 S   0  0  0  0  0  0  0  0  0  0  0  0
   -0.7350    0.0698    0.0000 H   0  0  0  0  0  0  0  0  0  0  0  0
   -1.2273   -1.4451    0.0000 H   0  0  0  0  0  0  0  0  0  0  0  0
  4  1  2  0
  5  3  1  0
  6  2  1  0
  7  4  1  0
  9  4  1  0
 10  7  2  0
 11  7  1  0
 11  8  2  0
 12  1  1  0
  5 12  1  0
 12  8  1  0
 13  2  1  0
 14  8  1  0
  5 15  1  0
  6 15  1  0
 16  3  1  0
  6 16  1  0
  5 17  1  1
  6 18  1  1
M  END
>  <DATABASE_ID>  (1) 
DB00879

>  <DATABASE_NAME>  (1) 
drugbank

>  <SMILES>  (1) 
[H][C@@]1(CO)O[C@@]([H])(CS1)N1C=C(F)C(=N)N=C1O

>  <INCHI_IDENTIFIER>  (1) 
InChI=1S/C8H10FN3O3S/c9-4-1-12(8(14)11-7(4)10)5-3-16-6(2-13)15-5/h1,5-6,13H,2-3H2,(H2,10,11,14)/t5-,6+/m0/s1

>  <INCHI_KEY>  (1) 
XQSPYNMVSIKCOC-NTSWFWBYSA-N

>  <FORMULA>  (1) 
C8H10FN3O3S

>  <MOLECULAR_WEIGHT>  (1) 
247.247

>  <EXACT_MASS>  (1) 
247.042690096

>  <JCHEM_ACCEPTOR_COUNT>  (1) 
6

>  <JCHEM_ATOM_COUNT>  (1) 
26

>  <JCHEM_AVERAGE_NEUTRAL_MICROSPECIES_CHARGE>  (1) 
0.02641444104372587

>  <JCHEM_AVERAGE_POLARIZABILITY>  (1) 
22.15483582333278

>  <JCHEM_BIOAVAILABILITY>  (1) 
1

>  <JCHEM_DONOR_COUNT>  (1) 
3

>  <JCHEM_FORMAL_CHARGE>  (1) 
0

>  <JCHEM_GHOSE_FILTER>  (1) 
1

>  <JCHEM_IUPAC>  (1) 
5-fluoro-1-[(2R,5S)-2-(hydroxymethyl)-1,3-oxathiolan-5-yl]-4-imino-1,4-dihydropyrimidin-2-ol

>  <ALOGPS_LOGP>  (1) 
-0.30

>  <JCHEM_LOGP>  (1) 
0.08247278233333338

>  <ALOGPS_LOGS>  (1) 
-2.97

>  <JCHEM_MDDR_LIKE_RULE>  (1) 
0

>  <JCHEM_NEUTRAL_CHARGE>  (1) 
0

>  <JCHEM_NUMBER_OF_RINGS>  (1) 
2

>  <JCHEM_PHYSIOLOGICAL_CHARGE>  (1) 
0

>  <JCHEM_PKA>  (1) 
14.29466177857758

>  <JCHEM_PKA_STRONGEST_ACIDIC>  (1) 
5.472442868902741

>  <JCHEM_PKA_STRONGEST_BASIC>  (1) 
0.560362041719956

>  <JCHEM_POLAR_SURFACE_AREA>  (1) 
89.14000000000001

>  <JCHEM_REFRACTIVITY>  (1) 
66.77990000000001

>  <JCHEM_ROTATABLE_BOND_COUNT>  (1) 
2

>  <JCHEM_RULE_OF_FIVE>  (1) 
1

>  <ALOGPS_SOLUBILITY>  (1) 
2.68e-01 g/l

>  <JCHEM_TRADITIONAL_IUPAC>  (1) 
6-cyclopropaneamido-N-[hydroxy(2H2)methyl]-4-{[2-methoxy-3-(1-methyl-1,2,4-triazol-3-yl)phenyl]amino}pyridazine-3-carboxamide

>  <JCHEM_VEBER_RULE>  (1) 
0

>  <DRUGBANK_ID>  (1) 
DB00879

>  <SECONDARY_ACCESSION_NUMBERS>  (1) 
APRD00226

>  <DRUG_GROUPS>  (1) 
approved; investigational

>  <GENERIC_NAME>  (1) 
Emtricitabine

>  <SYNONYMS>  (1) 
(−)-(2R,5S)-5-fluoro-1-[2-(hydroxymethyl)-1,3-oxathiolan-5-yl]cytosine; (−)-2'-deoxy-5-fluoro-3'-thiacytidine; (−)-cis-4-amino-5-fluoro-1-(2-hydroxymethyl-1,3-oxathiolan-5-yl)-(1H)-pyrimidin-2-one; (−)-FTC; (−)-β-2',3'-dideoxy-5-fluoro-3'-thiacytidine; (2R-cis)-4-amino-5-fluoro-1-(2-(hydroxymethyl)-1,3-oxathiolan-5-yl)-2(1H)-pyrimidinone; 4-amino-5-fluoro-1-((2R,5S)-2-(hydroxymethyl)-1,3-oxathiolan-5-yl)pyrimidin-2(1H)-one; 4-Amino-5-fluoro-1-((2R,5S)-2-hydroxymethyl-[1,3]oxathiolan-5-yl)-1H-pyrimidin-2-one; 5-fluoro-1-((2R,5S)-2-(hydroxymethyl)-1,3-oxathiolan-5-yl)cytosine; Emtricitabin; Emtricitabina; Emtricitabine; Emtricitabinum; FTC

>  <PRODUCTS>  (1) 
Ag-emtricitabine / Tenofovir Disoproxil Fumarate; Apo-efavirenz-emtricitabine-tenofovir; Apo-emtricitabine-tenofovir; Atripla; Atripla Access; Auro-efavirenz-emtricitabine-tenofovir; Auro-emtricitabine-tenofovir; Biktarvy; COMPLERA Access; Complera; Descovy; Efavirenz, Emtricitabine And Tenofovir Disoproxil Fumarate; Efavirenz, Emtricitabine and Tenofovir Disoproxil Fumarate; Efavirenz, emtricitabine and tenofovir disoproxil fumarate; Efavirenz/emtricita Bine/tenofovir Disoproxil Mylan; Efavirenz/emtricitabine/ Tenofovir Disoproxil Krka; Efavirenz/emtricitabine/ Tenofovir Disoproxil Zentiva; Emtricitabine; Emtricitabine and Tenofovir Disoproxil Fumarate; Emtricitabine and tenofovir disoproxil fumarate; Emtricitabine, Rilpivirine and Tenofovir Disoproxil Fumarate; Emtricitabine, Rilpivirine, Tenofovir Disoproxil Fumarate; Emtricitabine/TDF; Emtricitabine/ten Ofovir Disoproxil Mylan; Emtricitabine/teno Fovir Disoproxil Krka; Emtricitabine/teno Fovir Disoproxil Krka D.D.; Emtricitabine/tenofovir Alafenamide Viatris; Emtricitabine/tenofovir Disoproxil Mylan; Emtricitabine/tenofovir Disoproxil Zentiva; Emtriva; Eviplera; Genvoya; Jamp Efavirenz/emtricitabine/tenofovir Disoproxil Fumarate; Jamp Emtricitabine/tenofovir Disoproxil Fumarate; Mint-emtricitabine/tenofovir; Mylan-efavirenz/emtricitabine/tenofovir Disoproxil Fumarate; Mylan-emtricitabine/tenofovir Disoproxil; Odefsey; PMS-efavirenz-emtricitabine-tenofovir; PMS-emtricitabine-tenofovir; Riva-efavirenz/emtricitabine/tenofovir; Sandoz Efavirenz/emtricitabine/tenofovir; Sandoz Emtricitabine-tenofovir; Stribild; Stribild Access; Symtuza; Teva-efavirenz/emtricitabine/tenofovir; Teva-emtricitabine/tenofovir; Truvada; Truvada Access

>  <INTERNATIONAL_BRANDS>  (1) 
Coviracil

$$$$
