
     RDKit          2D

  9  8  0  0  0  0  0  0  0  0999 V2000
   -3.1875    1.3438    0.0000 N   0  0  0  0  0  0  0  0  0  0  0  0
   -2.4730    0.1063    0.0000 N   0  0  0  0  0  0  0  0  0  0  0  0
   -2.4730    0.9313    0.0000 C   0  0  0  0  0  0  0  0  0  0  0  0
   -1.7586    1.3438    0.0000 N   0  0  0  0  0  0  0  0  0  0  0  0
   -1.0441    0.1063    0.0000 N   0  0  0  0  0  0  0  0  0  0  0  0
   -1.0441    0.9313    0.0000 C   0  0  0  0  0  0  0  0  0  0  0  0
   -0.3296    2.1688    0.0000 C   0  0  0  0  0  0  0  0  0  0  0  0
   -0.3296    1.3438    0.0000 N   0  0  0  0  0  0  0  0  0  0  0  0
    0.3849    0.9313    0.0000 C   0  0  0  0  0  0  0  0  0  0  0  0
  1  3  1  0
  3  2  2  0
  3  4  1  0
  4  6  1  0
  6  5  2  0
  6  8  1  0
  8  7  1  0
  8  9  1  0
M  END
>  <DATABASE_ID>  (1) 
DB00331

>  <DATABASE_NAME>  (1) 
drugbank

>  <SMILES>  (1) 
CN(C)C(=N)NC(N)=N

>  <INCHI_IDENTIFIER>  (1) 
InChI=1S/C4H11N5/c1-9(2)4(7)8-3(5)6/h1-2H3,(H5,5,6,7,8)

>  <INCHI_KEY>  (1) 
XZWYZXLIPXDOLR-UHFFFAOYSA-N

>  <FORMULA>  (1) 
C4H11N5

>  <MOLECULAR_WEIGHT>  (1) 
129.1636

>  <EXACT_MASS>  (1) 
129.101445377

>  <JCHEM_ACCEPTOR_COUNT>  (1) 
5

>  <JCHEM_ATOM_COUNT>  (1) 
20

>  <JCHEM_AVERAGE_NEUTRAL_MICROSPECIES_CHARGE>  (1) 
1.9994511804988848

>  <JCHEM_AVERAGE_POLARIZABILITY>  (1) 
13.427402057500638

>  <JCHEM_BIOAVAILABILITY>  (1) 
1

>  <JCHEM_DONOR_COUNT>  (1) 
4

>  <JCHEM_FORMAL_CHARGE>  (1) 
0

>  <JCHEM_GHOSE_FILTER>  (1) 
0

>  <JCHEM_IUPAC>  (1) 
1-carbamimidamido-N,N-dimethylmethanimidamide

>  <ALOGPS_LOGP>  (1) 
-1.83

>  <JCHEM_LOGP>  (1) 
-0.9184292649999999

>  <ALOGPS_LOGS>  (1) 
-1.97

>  <JCHEM_MDDR_LIKE_RULE>  (1) 
0

>  <JCHEM_NEUTRAL_CHARGE>  (1) 
2

>  <JCHEM_NUMBER_OF_RINGS>  (1) 
0

>  <JCHEM_PHYSIOLOGICAL_CHARGE>  (1) 
2

>  <JCHEM_PKA_STRONGEST_BASIC>  (1) 
12.325150598103365

>  <JCHEM_POLAR_SURFACE_AREA>  (1) 
88.99

>  <JCHEM_REFRACTIVITY>  (1) 
56.642700000000005

>  <JCHEM_ROTATABLE_BOND_COUNT>  (1) 
0

>  <JCHEM_RULE_OF_FIVE>  (1) 
1

>  <ALOGPS_SOLUBILITY>  (1) 
1.38e+00 g/l

>  <JCHEM_TRADITIONAL_IUPAC>  (1) 
biotin

>  <JCHEM_VEBER_RULE>  (1) 
0

>  <DRUGBANK_ID>  (1) 
DB00331

>  <SECONDARY_ACCESSION_NUMBERS>  (1) 
APRD01099

>  <DRUG_GROUPS>  (1) 
approved; investigational

>  <GENERIC_NAME>  (1) 
Metformin

>  <SYNONYMS>  (1) 
1,1-Dimethylbiguanide; Dimethylbiguanid; Metformin; Metformina; Metformine; Metforminum

>  <PRODUCTS>  (1) 
Acc-metformin; Ach-metformin; Actoplus Met; Actoplus Met XR; Ag-metformin; Ag-sitagliptin Hydrochloride / Metformin; Alogliptin and Metformin Hydrochloride; Apo-dapagliflozin-metformin; Apo-metformin; Apo-metformin ER; Apo-sitagliptin Malate / Metformin Hydrochloride; Apo-sitagliptin-metformin; Apo-sitagliptin/metformin XR; Appformin; Appformin-D; Auro-dapagliflozin / Metformin; Auro-metformin; Auro-sitagliptin Hydrochloride and Metformin Hydrochloride; Ava-metformin; Avandamet; Bci Metformin; Bio-metformin; Competact; Compresso MF 95P; Dapagliflozin and Metformin Hydrochloride; Dm2; Dom-metformin; Ebymect; Ecl-metformin; Efficib; Eucreas; Fortamet; GLIPIZIDE and METFORMIN HYDROCHLORIDE; GlipiZIDE and Metformin Hydrochloride; Glipizide and Metformin HCl; Glipizide and Metformin Hydrochloride; Glipizide and metformin hcl; Glubrava; Glucophage; Glucophage XR; Glucovance; Glumetza; Glumetza (sb); Glyburide (micronized) and Metformin Hydrochloride; Glyburide Micronized and Metformin Hydrochloride; Glyburide and Metformin; Glyburide and Metformin Hydrochloride; Glyburide-Metformin Hydrochloride; Glyburide-metformin Hydrochloride; Glycon; Gpc-metformin XR; Icandra; Invokamet; Invokamet XR; Ipg-metformin; Jamp Metformin; Jamp Sitagliptin Hydrochloride / Metformin; Jamp-metformin Blackberry; Janumet; Janumet XR; Jentadueto; Jentadueto XR; Kazano; Kombiglyze XR; Komboglyze; Linagliptin and metformin hydrochloride; M-metformin; M-metformin XR; METFORMIN Hydrochloride; Mar-metformin; Mar-metformin XR; Med Metformin Tablets 500mg; Metaglip; Metfomin Hydrochloride; Metformin; Metformin ER; Metformin ER 500 mg; Metformin ER 750 mg; Metformin Fc; Metformin HCL; Metformin HCl; Metformin HCl ER; Metformin Hcl; Metformin Hydrochloride; Metformin Hydrochloride E/r; Metformin Hydrochloride ER; Metformin Hydrochloride Extended Release; Metformin Hydrochloride Extended-Release; Metformin Hydrochloride Extended-Release 500mg; Metformin Hydrochloride Oral Solution; Metformin Hydrochoride; Metformin Tablets; Metformin Tablets 500mg; Metformin hydrochloride; Metformin hydrochloride ER; Metformin-500 - Tab 500mg; Metformin-850; Metformin-Hcl; Mint-metformin; Mint-metformin XR; Mint-sitagliptin/metformin; Mylan-metformin; Nb-sitagliptin-metformin; Nra-metformin; Nra-metformin Tablets; Ntp-metformin; Orb-metformin; PHL-metformin; PMS-metformin; PMS-metformin - Tab 500mg; PMS-rosiglitazone-metformin; PMS-sitagliptin Tartrate/metformin; PMS-sitagliptin-metformin; Pg-metformin; Pioglitazole and metformin hydrochloride; Pioglitazone HCL and Metformin HCL; Pioglitazone Hydrochloride and Metformin Hydrochloride; Pioglitazone and Metformin Hydrochloride; Pioglitazone and Metformin Hydrocholride; Pioglitazone and metformin; Pioglitazone and metformin hydrochloride; Pmsc-metformin; Prandimet; Priva-metformin; Pro-metformin; Pro-sitagliptin Malate / Metformin Hydrochloride; Pro-sitagliptin-metformin; Prz-metformin; Prz-sitagliptin-metformin; Q-metformin; Qternmet XR; Ran-metformin; Ratio-metformin; Reddy-sitagliptin and Metformin Hydrochloride; Repaglinide and Metformin Hydrochloride; Rhoxal-metformin; Riomet; Riomet ER; Ristfor; Riva Sitagliptin/metformin; Riva-metformin; Riva-sitagliptin Tartrate/metformin; Sandoz Metformin Fc; Sandoz Metformin XR; Sandoz Sitagliptin-metformin; Sandoz Sitagliptin-metformin XR; Saxagliptin and Metformin; Saxagliptin and Metformin Hydrochloride; Segluromet; Septa-metformin; Sitagliptin - Metformin; Sitagliptin Metformin Hydrochloride Mylan; Sitagliptin Phosphate/Metformin Hydrochloride; Sitagliptin and Metformin Hydrochloride; Sitagliptin and metformin hydrochloride; Sitagliptin-metformin; Sitagliptin/metfo Rmin Hydrochloride Mylan; Sitagliptin/metfor Min Hydrochloride Mylan; Sitagliptin/metformin Hydrochloride Accord; Sitagliptin/metformin Hydrochloride Sun; Synjardy; Synjardy XR; Taro-metformin XR; Teva-metformin; Teva-sitagliptin Malate / Metformin; Trijardy XR; Van-metformin; Velmetia; Vildagliptin/metfo Rmin Hydrochloride Accord; Vildagliptin/metformin Hydrochloride Accord; Vipdomet; Vokanamet; Xigduo; Xigduo XR; Zituvimet; Zituvimet XR; Zomarist

>  <INTERNATIONAL_BRANDS>  (1) 
Apo-Metformin; Gen-Metformin; Novo-Metformin; Nu-Metformin; Sandoz Metformin

>  <SALTS>  (1) 
Metformin hydrochloride

$$$$
