
     RDKit          2D

 21 22  0  0  1  0  0  0  0  0999 V2000
    0.7145   -1.2375    0.0000 C   0  0  0  0  0  0  0  0  0  0  0  0
    1.4289   -1.6500    0.0000 O   0  0  0  0  0  0  0  0  0  0  0  0
    1.4289   -2.4750    0.0000 C   0  0  0  0  0  0  0  0  0  0  0  0
    2.1434   -2.8875    0.0000 C   0  0  0  0  0  0  0  0  0  0  0  0
    2.1434   -3.7125    0.0000 C   0  0  0  0  0  0  0  0  0  0  0  0
    1.4289   -4.1250    0.0000 C   0  0  0  0  0  0  0  0  0  0  0  0
    1.4289   -4.9500    0.0000 N   0  0  0  0  0  0  0  0  0  0  0  0
    2.1434   -5.3625    0.0000 C   0  0  0  0  0  0  0  0  0  0  0  0
    2.8579   -4.9500    0.0000 O   0  0  0  0  0  0  0  0  0  0  0  0
    2.1434   -6.1875    0.0000 C   0  0  0  0  0  0  0  0  0  0  0  0
    2.8579   -6.6000    0.0000 C   0  0  0  0  0  0  0  0  0  0  0  0
    2.8579   -7.4250    0.0000 C   0  0  0  0  0  0  0  0  0  0  0  0
    3.5724   -7.8375    0.0000 C   0  0  0  0  0  0  0  0  0  0  0  0
    2.1434   -7.8375    0.0000 C   0  0  0  0  0  0  0  0  0  0  0  0
    1.4289   -7.4250    0.0000 C   0  0  0  0  0  0  0  0  0  0  0  0
    1.4289   -6.6000    0.0000 C   0  0  0  0  0  0  0  0  0  0  0  0
    0.7145   -6.1875    0.0000 C   0  0  0  0  0  0  0  0  0  0  0  0
    0.7145   -5.3625    0.0000 C   0  0  0  0  0  0  0  0  0  0  0  0
    0.0000   -6.6000    0.0000 C   0  0  0  0  0  0  0  0  0  0  0  0
    0.7145   -3.7125    0.0000 C   0  0  0  0  0  0  0  0  0  0  0  0
    0.7145   -2.8875    0.0000 C   0  0  0  0  0  0  0  0  0  0  0  0
  1  2  1  0
  2  3  1  0
  3  4  2  0
  4  5  1  0
  5  6  2  0
  6  7  1  0
  7  8  1  0
  8  9  2  0
 10  8  1  6
 10 11  1  0
 12 11  1  0
 12 13  1  6
 12 14  1  0
 14 15  1  0
 16 15  1  0
 10 16  1  0
 16 17  1  1
 17 18  1  0
 17 19  1  0
  6 20  1  0
 20 21  2  0
  3 21  1  0
M  END
>  <DATABASE_ID>  (1) 
DB19202

>  <DATABASE_NAME>  (1) 
drugbank

>  <SMILES>  (1) 
COC1=CC=C(NC(=O)[C@@H]2C[C@H](C)CC[C@H]2C(C)C)C=C1

>  <INCHI_IDENTIFIER>  (1) 
InChI=1S/C18H27NO2/c1-12(2)16-10-5-13(3)11-17(16)18(20)19-14-6-8-15(21-4)9-7-14/h6-9,12-13,16-17H,5,10-11H2,1-4H3,(H,19,20)/t13-,16-,17-/m1/s1

>  <INCHI_KEY>  (1) 
HNSGVPAAXJJOPQ-XOKHGSTOSA-N

>  <FORMULA>  (1) 
C18H27NO2

>  <MOLECULAR_WEIGHT>  (1) 
289.419

>  <EXACT_MASS>  (1) 
289.204179113

>  <DRUGBANK_ID>  (1) 
DB19202

>  <DRUG_GROUPS>  (1) 
approved; investigational

>  <GENERIC_NAME>  (1) 
Acoltremon

>  <SYNONYMS>  (1) 
Acoltremon; Cyclohexanecarboxamide, n-(4-methoxyphenyl)-5-methyl-2-(1-methylethyl)-, (1r,2s,5r)-; N-(4-methoxyphenyl)-5-methyl-2- (1-methylethyl)cyclohexanecarboxamide, (1r,2s,5r)-; N-(4-methoxyphenyl)-p-menthanecarboxamide

>  <PRODUCTS>  (1) 
Tryptyr

$$$$
