
     RDKit          2D

 43 43  0  0  0  0  0  0  0  0999 V2000
   -1.4289    0.2061    0.0000 C   0  0  0  0  0  0  0  0  0  0  0  0
   -2.1435   -0.2063    0.0000 C   0  0  0  0  0  0  0  0  0  0  0  0
   -2.1435   -1.0313    0.0000 C   0  0  0  0  0  0  0  0  0  0  0  0
   -1.4289   -1.4438    0.0000 C   0  0  0  0  0  0  0  0  0  0  0  0
   -0.7145   -1.0313    0.0000 C   0  0  0  0  0  0  0  0  0  0  0  0
   -2.8580   -1.4438    0.0000 C   0  0  0  0  0  0  0  0  0  0  0  0
   -0.7145   -0.2063    0.0000 C   0  0  0  0  0  0  0  0  0  0  0  0
    0.0000    0.2061    0.0000 O   0  0  0  0  0  0  0  0  0  0  0  0
    0.7144   -0.2063    0.0000 C   0  0  0  0  0  0  0  0  0  0  0  0
    1.4289    0.2061    0.0000 C   0  0  0  0  0  0  0  0  0  0  0  0
    2.1435   -0.2063    0.0000 O   0  0  0  0  0  0  0  0  0  0  0  0
    2.8580    0.2061    0.0000 C   0  0  0  0  0  0  0  0  0  0  0  0
    3.5724   -0.2063    0.0000 C   0  0  0  0  0  0  0  0  0  0  0  0
    4.2870    0.2061    0.0000 O   0  0  0  0  0  0  0  0  0  0  0  0
    5.0015   -0.2063    0.0000 C   0  0  0  0  0  0  0  0  0  0  0  0
    5.7159    0.2061    0.0000 C   0  0  0  0  0  0  0  0  0  0  0  0
    0.0000    1.0312    0.0000 C   0  0  0  0  0  0  0  0  0  0  0  0
    0.7144    1.4437    0.0000 C   0  0  0  0  0  0  0  0  0  0  0  0
    1.4289    1.0312    0.0000 O   0  0  0  0  0  0  0  0  0  0  0  0
    2.1435    1.4437    0.0000 C   0  0  0  0  0  0  0  0  0  0  0  0
    2.8580    1.0312    0.0000 C   0  0  0  0  0  0  0  0  0  0  0  0
    3.5724    1.4437    0.0000 O   0  0  0  0  0  0  0  0  0  0  0  0
    4.2870    1.0312    0.0000 C   0  0  0  0  0  0  0  0  0  0  0  0
    5.0015    1.4437    0.0000 C   0  0  0  0  0  0  0  0  0  0  0  0
    5.7159    1.0312    0.0000 O   0  0  0  0  0  0  0  0  0  0  0  0
   -0.7145    1.4437    0.0000 O   0  0  0  0  0  0  0  0  0  0  0  0
   -0.7145    2.2688    0.0000 C   0  0  0  0  0  0  0  0  0  0  0  0
    0.0000    2.6813    0.0000 C   0  0  0  0  0  0  0  0  0  0  0  0
    0.7144    2.2688    0.0000 O   0  0  0  0  0  0  0  0  0  0  0  0
    1.4289    2.6813    0.0000 C   0  0  0  0  0  0  0  0  0  0  0  0
    2.1435    2.2688    0.0000 C   0  0  0  0  0  0  0  0  0  0  0  0
    2.8580    2.6813    0.0000 O   0  0  0  0  0  0  0  0  0  0  0  0
    3.5724    2.2688    0.0000 C   0  0  0  0  0  0  0  0  0  0  0  0
    4.2870    2.6813    0.0000 C   0  0  0  0  0  0  0  0  0  0  0  0
    5.0015    2.2688    0.0000 O   0  0  0  0  0  0  0  0  0  0  0  0
   -4.2870   -1.4437    0.0000 C   0  0  0  0  0  0  0  0  0  0  0  0
   -4.2870   -2.2688    0.0000 C   0  0  0  0  0  0  0  0  0  0  0  0
   -5.0016   -1.0312    0.0000 C   0  0  0  0  0  0  0  0  0  0  0  0
   -5.0016   -2.6813    0.0000 C   0  0  0  0  0  0  0  0  0  0  0  0
   -5.7160   -1.4437    0.0000 C   0  0  0  0  0  0  0  0  0  0  0  0
   -5.7160   -2.2688    0.0000 C   0  0  0  0  0  0  0  0  0  0  0  0
   -3.5725   -1.0313    0.0000 C   0  0  0  0  0  0  0  0  0  0  0  0
   -3.5726   -2.6813    0.0000 C   0  0  0  0  0  0  0  0  0  0  0  0
  1  2  2  0
  1  7  1  0
  2  3  1  0
  3  4  2  0
  4  5  1  0
  5  7  2  0
  3  6  1  0
  7  8  1  0
  8  9  1  0
  9 10  1  0
 10 11  1  0
 11 12  1  0
 12 13  1  0
 13 14  1  0
 14 15  1  0
 15 16  1  0
 16 25  1  0
 17 18  1  0
 18 19  1  0
 19 20  1  0
 20 21  1  0
 21 22  1  0
 22 23  1  0
 23 24  1  0
 24 25  1  0
 17 26  1  0
 26 27  1  0
 27 28  1  0
 28 29  1  0
 29 30  1  0
 30 31  1  0
 31 32  1  0
 32 33  1  0
 33 34  1  0
 34 35  1  0
 38 36  1  0
 39 37  1  0
 40 38  1  0
 41 39  1  0
 41 40  1  0
 42 36  1  0
  6 42  1  0
 43 37  1  0
M  END
>  <DATABASE_ID>  (1) 
DB06804

>  <DATABASE_NAME>  (1) 
drugbank

>  <SMILES>  (1) 
CCCCCCCCCC1=CC=C(OCCOCCOCCOCCOCCOCCOCCOCCOCCO)C=C1

>  <INCHI_IDENTIFIER>  (1) 
InChI=1S/C33H60O10/c1-2-3-4-5-6-7-8-9-32-10-12-33(13-11-32)43-31-30-42-29-28-41-27-26-40-25-24-39-23-22-38-21-20-37-19-18-36-17-16-35-15-14-34/h10-13,34H,2-9,14-31H2,1H3

>  <INCHI_KEY>  (1) 
FBWNMEQMRUMQSO-UHFFFAOYSA-N

>  <FORMULA>  (1) 
C33H60O10

>  <MOLECULAR_WEIGHT>  (1) 
616.8235

>  <EXACT_MASS>  (1) 
616.41864814

>  <JCHEM_ACCEPTOR_COUNT>  (1) 
10

>  <JCHEM_ATOM_COUNT>  (1) 
103

>  <JCHEM_AVERAGE_POLARIZABILITY>  (1) 
77.06672959715837

>  <JCHEM_BIOAVAILABILITY>  (1) 
0

>  <JCHEM_DONOR_COUNT>  (1) 
1

>  <JCHEM_FORMAL_CHARGE>  (1) 
0

>  <JCHEM_GHOSE_FILTER>  (1) 
0

>  <JCHEM_IUPAC>  (1) 
26-(4-nonylphenoxy)-3,6,9,12,15,18,21,24-octaoxahexacosan-1-ol

>  <ALOGPS_LOGP>  (1) 
3.49

>  <JCHEM_LOGP>  (1) 
4.819639180999998

>  <ALOGPS_LOGS>  (1) 
-6.46

>  <JCHEM_MDDR_LIKE_RULE>  (1) 
0

>  <JCHEM_NUMBER_OF_RINGS>  (1) 
1

>  <JCHEM_PHYSIOLOGICAL_CHARGE>  (1) 
0

>  <JCHEM_PKA_STRONGEST_ACIDIC>  (1) 
15.121155523152114

>  <JCHEM_PKA_STRONGEST_BASIC>  (1) 
-2.7458065741732653

>  <JCHEM_POLAR_SURFACE_AREA>  (1) 
103.30000000000003

>  <JCHEM_REFRACTIVITY>  (1) 
169.01069999999999

>  <JCHEM_ROTATABLE_BOND_COUNT>  (1) 
35

>  <JCHEM_RULE_OF_FIVE>  (1) 
0

>  <ALOGPS_SOLUBILITY>  (1) 
2.14e-04 g/l

>  <JCHEM_TRADITIONAL_IUPAC>  (1) 
nonoxynol-9

>  <JCHEM_VEBER_RULE>  (1) 
0

>  <DRUGBANK_ID>  (1) 
DB06804

>  <DRUG_GROUPS>  (1) 
approved; investigational; withdrawn

>  <GENERIC_NAME>  (1) 
Nonoxynol-9

>  <SYNONYMS>  (1) 
26-(Nonylphenoxy)-3,6,9,12,15,18,21,24-octaoxahexacosan-1-ol; Nonaethylene glycol mono(nonylphenyl) ether; Nonaethylene glycol nonylphenyl ether; Nonoxynol 9; Nonoxynol-9; Nonylphenol octa(oxyethylene) ethanol; P-Nonylphenyl polyethylene glycol ether; PEG-9 nonyl phenyl ether; Polyoxyethylene (9) nonyl phenyl ether; Tergitol NP-9; Tergitol NP9

>  <PRODUCTS>  (1) 
Conceptrol Options; ContraSeed; Encare; Gynol II Extra Strength; Today Vaginal Contraceptive; Vcf Contraceptive; Vcf Contraceptive Pre-filled Applicators

>  <INTERNATIONAL_BRANDS>  (1) 
Advantage 24; Gynoll; Today; VCF

$$$$
