
     RDKit          2D

  8  7  0  0  0  0  0  0  0  0999 V2000
    0.8250    0.0000    0.0000 C   0  0  0  0  0  0  0  0  0  0  0  0
    0.8250   -0.8250    0.0000 C   0  0  0  0  0  0  0  0  0  0  0  0
    0.8250   -1.6500    0.0000 Cl  0  0  0  0  0  0  0  0  0  0  0  0
    1.6500   -0.8250    0.0000 F   0  0  0  0  0  0  0  0  0  0  0  0
    0.0000   -0.8250    0.0000 F   0  0  0  0  0  0  0  0  0  0  0  0
    0.8250    0.8250    0.0000 F   0  0  0  0  0  0  0  0  0  0  0  0
    1.6500   -0.0000    0.0000 F   0  0  0  0  0  0  0  0  0  0  0  0
    0.0000    0.0000    0.0000 Cl  0  0  0  0  0  0  0  0  0  0  0  0
  1  2  1  0
  2  3  1  0
  2  4  1  0
  2  5  1  0
  1  6  1  0
  1  7  1  0
  1  8  1  0
M  END
>  <DATABASE_ID>  (1) 
DB20118

>  <DATABASE_NAME>  (1) 
drugbank

>  <SMILES>  (1) 
FC(F)(Cl)C(F)(F)Cl

>  <INCHI_IDENTIFIER>  (1) 
InChI=1S/C2Cl2F4/c3-1(5,6)2(4,7)8

>  <INCHI_KEY>  (1) 
DDMOUSALMHHKOS-UHFFFAOYSA-N

>  <FORMULA>  (1) 
C2Cl2F4

>  <MOLECULAR_WEIGHT>  (1) 
170.92

>  <EXACT_MASS>  (1) 
169.9313181

>  <DRUGBANK_ID>  (1) 
DB20118

>  <DRUG_GROUPS>  (1) 
approved; withdrawn

>  <GENERIC_NAME>  (1) 
Dichlorotetrafluoroethane

>  <SYNONYMS>  (1) 
Chlorofluorocarbon 114; Cryfluorane; Cryofluorane; Dichlorotetrafluoroethane; Refrigerant 114; Tetrafluordichlorethan

>  <PRODUCTS>  (1) 
Flouro Ethyl Aer; Pharmaethyl Aer

$$$$
