
     RDKit          2D

 30 34  0  0  1  0  0  0  0  0999 V2000
    2.2215    3.0466    0.0000 H   0  0  0  0  0  0  0  0  0  0  0  0
    2.0482    2.2400    0.0000 C   0  0  0  0  0  0  0  0  0  0  0  0
    2.8555    2.4098    0.0000 C   0  0  0  0  0  0  0  0  0  0  0  0
    3.4062    1.7955    0.0000 C   0  0  0  0  0  0  0  0  0  0  0  0
    4.2136    1.9652    0.0000 O   0  0  0  0  0  0  0  0  0  0  0  0
    4.7643    1.3509    0.0000 C   0  0  0  0  0  0  0  0  0  0  0  0
    4.5076    0.5669    0.0000 O   0  0  0  0  0  0  0  0  0  0  0  0
    5.5716    1.5207    0.0000 C   0  0  0  0  0  0  0  0  0  0  0  0
    5.8283    2.3047    0.0000 C   0  0  0  0  0  0  0  0  0  0  0  0
    6.6356    2.4745    0.0000 C   0  0  0  0  0  0  0  0  0  0  0  0
    7.1863    1.8602    0.0000 C   0  0  0  0  0  0  0  0  0  0  0  0
    6.9296    1.0761    0.0000 C   0  0  0  0  0  0  0  0  0  0  0  0
    6.1223    0.9064    0.0000 C   0  0  0  0  0  0  0  0  0  0  0  0
    3.1496    1.0114    0.0000 C   0  0  0  0  0  0  0  0  0  0  0  0
    2.3422    0.8416    0.0000 C   0  0  0  0  0  0  0  0  0  0  0  0
    1.7915    1.4559    0.0000 C   0  0  0  0  0  0  0  0  0  0  0  0
    1.6846    0.5682    0.0000 C   0  0  0  0  0  0  0  0  0  0  0  0
    1.6998   -0.3015    0.0000 C   0  0  0  0  0  0  0  0  0  0  0  0
    0.9570   -0.6762    0.0000 N   0  0  0  0  0  0  0  0  0  0  0  0
    0.7608   -1.4776    0.0000 C   0  0  0  0  0  0  0  0  0  0  0  0
    0.4704    0.0008    0.0000 C   0  0  0  0  0  0  0  0  0  0  0  0
    0.4508    0.8139    0.0000 C   0  0  0  0  0  0  0  0  0  0  0  0
   -0.3934    1.0191    0.0000 C   0  0  0  0  0  0  0  0  0  0  0  0
   -0.6467    1.8043    0.0000 C   0  0  0  0  0  0  0  0  0  0  0  0
   -0.0933    2.4162    0.0000 C   0  0  0  0  0  0  0  0  0  0  0  0
   -0.3465    3.2014    0.0000 O   0  0  0  0  0  0  0  0  0  0  0  0
    0.2069    3.8133    0.0000 C   0  0  0  0  0  0  0  0  0  0  0  0
    0.7133    2.2429    0.0000 C   0  0  0  0  0  0  0  0  0  0  0  0
    1.3818    2.7264    0.0000 O   0  0  0  0  0  0  0  0  0  0  0  0
    0.9665    1.4577    0.0000 C   0  0  0  0  0  0  0  0  0  0  0  0
  2  1  1  6
  2  3  1  0
  4  3  1  0
  4  5  1  1
  5  6  1  0
  6  7  2  0
  6  8  1  0
  8  9  2  0
  9 10  1  0
 10 11  2  0
 11 12  1  0
 12 13  2  0
  8 13  1  0
  4 14  1  0
 14 15  2  0
 16 15  1  0
  2 16  1  0
 16 17  1  6
 17 18  1  0
 18 19  1  0
 19 20  1  0
 19 21  1  0
 21 22  1  0
 22 23  1  0
 23 24  2  0
 24 25  1  0
 25 26  1  0
 26 27  1  0
 25 28  2  0
 28 29  1  0
  2 29  1  0
 28 30  1  0
 16 30  1  0
 22 30  2  0
M  END
>  <DATABASE_ID>  (1) 
DB19353

>  <DATABASE_NAME>  (1) 
drugbank

>  <SMILES>  (1) 
[H][C@]12C[C@@H](OC(=O)C3=CC=CC=C3)C=C[C@]11CCN(C)CC3=CC=C(OC)C(O2)=C13

>  <INCHI_IDENTIFIER>  (1) 
InChI=1S/C24H25NO4/c1-25-13-12-24-11-10-18(28-23(26)16-6-4-3-5-7-16)14-20(24)29-22-19(27-2)9-8-17(15-25)21(22)24/h3-11,18,20H,12-15H2,1-2H3/t18-,20-,24-/m0/s1

>  <INCHI_KEY>  (1) 
JKVNJTYHRABHIY-WXVUKLJWSA-N

>  <FORMULA>  (1) 
C24H25NO4

>  <MOLECULAR_WEIGHT>  (1) 
391.467

>  <EXACT_MASS>  (1) 
391.178358289

>  <DRUGBANK_ID>  (1) 
DB19353

>  <DRUG_GROUPS>  (1) 
approved

>  <GENERIC_NAME>  (1) 
Benzgalantamine

>  <SYNONYMS>  (1) 
6h-benzofuro(3a,3,2-ef)(2)benzazepin-6-ol, 4a,5,9,10,11,12-hexahydro-3-methoxy-11-methyl-, benzoate (ester), (4as,6r,8as)-; Galantamine benzoate; Memogain

>  <PRODUCTS>  (1) 
Zunveyl

>  <SALTS>  (1) 
Benzgalantamine gluconate

$$$$
