
     RDKit          2D

 67 72  0  0  0  0  0  0  0  0999 V2000
    4.8051    0.8831    0.0000 N   0  0  0  0  0  0  0  0  0  0  0  0
   -4.9852    0.7810    0.0000 N   0  0  0  0  0  0  0  0  0  0  0  0
    6.2114    0.8831    0.0000 C   0  0  0  0  0  0  0  0  0  0  0  0
   -6.4012    0.7810    0.0000 C   0  0  0  0  0  0  0  0  0  0  0  0
   -5.6908    0.3917    0.0000 C   0  0  0  0  0  0  0  0  0  0  0  0
    5.4912    0.4647    0.0000 C   0  0  0  0  0  0  0  0  0  0  0  0
    6.2114    1.7153    0.0000 C   0  0  0  0  0  0  0  0  0  0  0  0
   -6.4012    1.6422    0.0000 C   0  0  0  0  0  0  0  0  0  0  0  0
    6.9219    0.4647    0.0000 C   0  0  0  0  0  0  0  0  0  0  0  0
   -7.1165    0.3917    0.0000 C   0  0  0  0  0  0  0  0  0  0  0  0
    7.6518    0.8831    0.0000 C   0  0  0  0  0  0  0  0  0  0  0  0
   -7.8465    0.7810    0.0000 C   0  0  0  0  0  0  0  0  0  0  0  0
   -7.1165    2.0267    0.0000 C   0  0  0  0  0  0  0  0  0  0  0  0
    6.9219    2.1240    0.0000 C   0  0  0  0  0  0  0  0  0  0  0  0
    7.6518    1.7153    0.0000 C   0  0  0  0  0  0  0  0  0  0  0  0
   -7.8465    1.6422    0.0000 C   0  0  0  0  0  0  0  0  0  0  0  0
    3.4378    0.8005    0.0000 C   0  0  0  0  0  0  0  0  0  0  0  0
   -3.5692    0.7810    0.0000 C   0  0  0  0  0  0  0  0  0  0  0  0
    4.1044    0.4647    0.0000 C   0  0  0  0  0  0  0  0  0  0  0  0
   -4.2991    0.3917    0.0000 C   0  0  0  0  0  0  0  0  0  0  0  0
    2.7760    0.4647    0.0000 C   0  0  0  0  0  0  0  0  0  0  0  0
   -2.8685    0.3917    0.0000 C   0  0  0  0  0  0  0  0  0  0  0  0
    7.7005   -0.7955    0.0000 C   0  0  0  0  0  0  0  0  0  0  0  0
   -7.8318   -0.8344    0.0000 C   0  0  0  0  0  0  0  0  0  0  0  0
   -4.9852    1.6422    0.0000 C   0  0  0  0  0  0  0  0  0  0  0  0
    4.8051    1.7153    0.0000 C   0  0  0  0  0  0  0  0  0  0  0  0
    5.4912   -0.4598    0.0000 C   0  0  0  0  0  0  0  0  0  0  0  0
   -5.6908   -0.4452    0.0000 C   0  0  0  0  0  0  0  0  0  0  0  0
    7.7005   -1.6373    0.0000 C   0  0  0  0  0  0  0  0  0  0  0  0
   -7.8318   -1.6860    0.0000 C   0  0  0  0  0  0  0  0  0  0  0  0
   -7.1165   -0.4598    0.0000 C   0  0  0  0  0  0  0  0  0  0  0  0
    7.0143   -0.3819    0.0000 C   0  0  0  0  0  0  0  0  0  0  0  0
   -5.6908    2.0267    0.0000 C   0  0  0  0  0  0  0  0  0  0  0  0
    5.4912    2.1240    0.0000 C   0  0  0  0  0  0  0  0  0  0  0  0
    6.2845   -0.7955    0.0000 C   0  0  0  0  0  0  0  0  0  0  0  0
   -6.3866   -0.8344    0.0000 C   0  0  0  0  0  0  0  0  0  0  0  0
    2.7760   -0.3138    0.0000 O   0  0  0  0  0  0  0  0  0  0  0  0
   -2.8685   -0.3819    0.0000 O   0  0  0  0  0  0  0  0  0  0  0  0
   -7.1165   -2.1240    0.0000 C   0  0  0  0  0  0  0  0  0  0  0  0
    7.0143   -2.0656    0.0000 C   0  0  0  0  0  0  0  0  0  0  0  0
    6.2845   -1.6373    0.0000 C   0  0  0  0  0  0  0  0  0  0  0  0
   -6.3866   -1.6860    0.0000 C   0  0  0  0  0  0  0  0  0  0  0  0
    4.0801    1.5741    0.0000 C   0  0  0  0  0  0  0  0  0  0  0  0
   -4.0363    1.6568    0.0000 C   0  0  0  0  0  0  0  0  0  0  0  0
   -8.5375    0.3917    0.0000 O   0  0  0  0  0  0  0  0  0  0  0  0
    8.4742    0.4306    0.0000 O   0  0  0  0  0  0  0  0  0  0  0  0
   -8.5375    2.0267    0.0000 O   0  0  0  0  0  0  0  0  0  0  0  0
    8.3282    2.1240    0.0000 O   0  0  0  0  0  0  0  0  0  0  0  0
    8.4011   -0.3576    0.0000 O   0  0  0  0  0  0  0  0  0  0  0  0
   -8.5180   -0.3819    0.0000 O   0  0  0  0  0  0  0  0  0  0  0  0
   -2.1823    0.7810    0.0000 O   0  0  0  0  0  0  0  0  0  0  0  0
    2.1483    0.8686    0.0000 O   0  0  0  0  0  0  0  0  0  0  0  0
    8.5180   -2.0899    0.0000 O   0  0  0  0  0  0  0  0  0  0  0  0
   -8.5180   -2.0656    0.0000 O   0  0  0  0  0  0  0  0  0  0  0  0
   -1.4525    0.4647    0.0000 C   0  0  0  0  0  0  0  0  0  0  0  0
    1.4525    0.4647    0.0000 C   0  0  0  0  0  0  0  0  0  0  0  0
    9.1116   -0.7664    0.0000 C   0  0  0  0  0  0  0  0  0  0  0  0
   -9.2478    1.6568    0.0000 C   0  0  0  0  0  0  0  0  0  0  0  0
    9.1311    0.7810    0.0000 C   0  0  0  0  0  0  0  0  0  0  0  0
   -9.2478   -0.7664    0.0000 C   0  0  0  0  0  0  0  0  0  0  0  0
   -9.2771    0.7664    0.0000 C   0  0  0  0  0  0  0  0  0  0  0  0
    9.0240    1.7153    0.0000 C   0  0  0  0  0  0  0  0  0  0  0  0
    9.2771   -1.6373    0.0000 C   0  0  0  0  0  0  0  0  0  0  0  0
   -9.2382   -1.6860    0.0000 C   0  0  0  0  0  0  0  0  0  0  0  0
    0.7079    0.7810    0.0000 C   0  0  0  0  0  0  0  0  0  0  0  0
   -0.7517    0.7810    0.0000 C   0  0  0  0  0  0  0  0  0  0  0  0
    0.0219    0.4647    0.0000 C   0  0  0  0  0  0  0  0  0  0  0  0
  2 20  1  0
  3  6  1  0
  4  5  1  0
  5  2  1  0
  6  1  1  0
  7 34  1  0
  8 33  1  0
  9  3  2  0
 10  4  2  0
 11  9  1  0
 12 10  1  0
 13  8  2  0
 14  7  2  0
 15 14  1  0
 16 13  1  0
 17 19  1  0
 18 22  1  0
  1 19  1  0
 20 18  1  0
 21 17  1  0
 22 51  1  0
 23 32  2  0
 24 31  2  0
 25  2  1  0
 26  1  1  0
  6 27  1  1
  5 28  1  6
 29 40  2  0
 30 39  2  0
 31 36  1  0
 32 35  1  0
 33 25  1  0
 34 26  1  0
 35 27  1  0
 36 28  1  0
 37 21  2  0
 38 22  2  0
 39 42  1  0
 40 41  1  0
 41 35  2  0
 42 36  2  0
  1 43  1  6
  2 44  1  1
 45 12  1  0
 46 11  1  0
 47 16  1  0
 48 15  1  0
 49 23  1  0
 50 24  1  0
 51 55  1  0
 52 21  1  0
 53 29  1  0
 54 30  1  0
 55 66  1  0
 56 52  1  0
 57 49  1  0
 58 47  1  0
 59 46  1  0
 60 50  1  0
 61 45  1  0
 62 48  1  0
 63 53  1  0
 64 54  1  0
 65 56  1  0
 66 67  1  0
 67 65  1  0
  7  3  1  0
 15 11  2  0
 29 23  1  0
  8  4  1  0
 16 12  2  0
 30 24  1  0
M  CHG  2   1   1   2   1
M  END
>  <DATABASE_ID>  (1) 
DB00565

>  <DATABASE_NAME>  (1) 
drugbank

>  <SMILES>  (1) 
COC1=CC2=C(C=C1OC)[C@@H](CC1=CC(OC)=C(OC)C=C1)[N@@+](C)(CCC(=O)OCCCCCOC(=O)CC[N@@+]1(C)CCC3=C(C=C(OC)C(OC)=C3)[C@H]1CC1=CC(OC)=C(OC)C=C1)CC2

>  <INCHI_IDENTIFIER>  (1) 
InChI=1S/C53H72N2O12/c1-54(22-18-38-32-48(62-7)50(64-9)34-40(38)42(54)28-36-14-16-44(58-3)46(30-36)60-5)24-20-52(56)66-26-12-11-13-27-67-53(57)21-25-55(2)23-19-39-33-49(63-8)51(65-10)35-41(39)43(55)29-37-15-17-45(59-4)47(31-37)61-6/h14-17,30-35,42-43H,11-13,18-29H2,1-10H3/q+2/t42-,43-,54-,55-/m1/s1

>  <INCHI_KEY>  (1) 
YXSLJKQTIDHPOT-LJCJQEJUSA-N

>  <FORMULA>  (1) 
C53H72N2O12

>  <MOLECULAR_WEIGHT>  (1) 
929.16

>  <EXACT_MASS>  (1) 
928.507428607

>  <JCHEM_ACCEPTOR_COUNT>  (1) 
10

>  <JCHEM_ATOM_COUNT>  (1) 
139

>  <JCHEM_AVERAGE_POLARIZABILITY>  (1) 
104.19034065727146

>  <JCHEM_BIOAVAILABILITY>  (1) 
0

>  <JCHEM_DONOR_COUNT>  (1) 
0

>  <JCHEM_FORMAL_CHARGE>  (1) 
2

>  <JCHEM_GHOSE_FILTER>  (1) 
0

>  <JCHEM_IUPAC>  (1) 
(1R,2R)-1-[(3,4-dimethoxyphenyl)methyl]-2-(3-{[5-({3-[(1R,2R)-1-[(3,4-dimethoxyphenyl)methyl]-6,7-dimethoxy-2-methyl-1,2,3,4-tetrahydroisoquinolin-2-ium-2-yl]propanoyl}oxy)pentyl]oxy}-3-oxopropyl)-6,7-dimethoxy-2-methyl-1,2,3,4-tetrahydroisoquinolin-2-ium

>  <ALOGPS_LOGP>  (1) 
3.41

>  <JCHEM_LOGP>  (1) 
-0.9590320619434906

>  <ALOGPS_LOGS>  (1) 
-7.63

>  <JCHEM_MDDR_LIKE_RULE>  (1) 
1

>  <JCHEM_NUMBER_OF_RINGS>  (1) 
6

>  <JCHEM_PHYSIOLOGICAL_CHARGE>  (1) 
2

>  <JCHEM_PKA>  (1) 
19.618566918135095

>  <JCHEM_PKA_STRONGEST_ACIDIC>  (1) 
19.01650692680713

>  <JCHEM_PKA_STRONGEST_BASIC>  (1) 
-4.114322707937125

>  <JCHEM_POLAR_SURFACE_AREA>  (1) 
126.44000000000004

>  <JCHEM_REFRACTIVITY>  (1) 
280.6771999999999

>  <JCHEM_ROTATABLE_BOND_COUNT>  (1) 
26

>  <JCHEM_RULE_OF_FIVE>  (1) 
0

>  <ALOGPS_SOLUBILITY>  (1) 
2.32e-05 g/l

>  <JCHEM_TRADITIONAL_IUPAC>  (1) 
(1R,2R)-1-[(3,4-dimethoxyphenyl)methyl]-2-(3-{[5-({3-[(1R,2R)-1-[(3,4-dimethoxyphenyl)methyl]-6,7-dimethoxy-2-methyl-3,4-dihydro-1H-isoquinolin-2-ium-2-yl]propanoyl}oxy)pentyl]oxy}-3-oxopropyl)-6,7-dimethoxy-2-methyl-3,4-dihydro-1H-isoquinolin-2-ium

>  <JCHEM_VEBER_RULE>  (1) 
0

>  <DRUGBANK_ID>  (1) 
DB00565

>  <SECONDARY_ACCESSION_NUMBERS>  (1) 
APRD00874

>  <DRUG_GROUPS>  (1) 
approved; investigational

>  <GENERIC_NAME>  (1) 
Cisatracurium

>  <SYNONYMS>  (1) 
(1r,2r,1'r,2'r)-2,2'-{pentane-1,5-diylbis[oxy(3-oxopropane-3,1-diyl)]}bis[1-(3,4-dimethoxybenzyl)-6,7-dimethoxy-2-methyl-1,2,3,4-tetrahydroisoquinolinium]; Cis-Atracurium; Cisatracurium; Cisatracurium cation; Cisatracurium ion

>  <PRODUCTS>  (1) 
Aj-cisatracurium; Cisatracurium; Cisatracurium Besylate; Cisatracurium Besylate Injection; Cisatracurium Besylate Injection (preservative-free); Cisatracurium Besylate Injection Multi-dose; Cisatracurium Besylate Injection Single Dose; Cisatracurium Besylate Injection USP Multidose; Cisatracurium Besylate Injection, USP Multi-dose; Cisatracurium Omega Single Dose; Cisatracurium besylate; Nimbex; Nimbex 10mg/ml

>  <INTERNATIONAL_BRANDS>  (1) 
Nimbex; Nimbex Preservative Free; Nimbium

>  <SALTS>  (1) 
Cisatracurium besylate

$$$$
