
     RDKit          2D

 21 23  0  0  0  0  0  0  0  0999 V2000
   -0.3604    0.2187    0.0000 O   0  0  0  0  0  0  0  0  0  0  0  0
   -1.0729   -0.2020    0.0000 C   0  0  0  0  0  0  0  0  0  0  0  0
   -1.0812   -1.0270    0.0000 C   0  0  0  0  0  0  0  0  0  0  0  0
    0.3562   -0.2020    0.0000 C   0  0  0  0  0  0  0  0  0  0  0  0
   -0.3604   -1.4437    0.0000 C   0  0  0  0  0  0  0  0  0  0  0  0
   -1.7936   -1.4437    0.0000 C   0  0  0  0  0  0  0  0  0  0  0  0
    1.0687    0.2062    0.0000 C   0  0  0  0  0  0  0  0  0  0  0  0
    0.3562   -1.0312    0.0000 C   0  0  0  0  0  0  0  0  0  0  0  0
   -1.7936    0.2104    0.0000 C   0  0  0  0  0  0  0  0  0  0  0  0
   -2.5062   -1.0312    0.0000 C   0  0  0  0  0  0  0  0  0  0  0  0
    1.0687    1.0312    0.0000 C   0  0  0  0  0  0  0  0  0  0  0  0
    1.7812    1.4437    0.0000 C   0  0  0  0  0  0  0  0  0  0  0  0
   -2.5062   -0.2020    0.0000 C   0  0  0  0  0  0  0  0  0  0  0  0
    2.5020    1.0312    0.0000 C   0  0  0  0  0  0  0  0  0  0  0  0
    1.7812   -0.2062    0.0000 C   0  0  0  0  0  0  0  0  0  0  0  0
    2.4936    0.1979    0.0000 C   0  0  0  0  0  0  0  0  0  0  0  0
   -1.7853   -2.2687    0.0000 O   0  0  0  0  0  0  0  0  0  0  0  0
    1.0687   -1.4437    0.0000 O   0  0  0  0  0  0  0  0  0  0  0  0
    1.7812    2.2687    0.0000 O   0  0  0  0  0  0  0  0  0  0  0  0
    3.2186    1.4354    0.0000 O   0  0  0  0  0  0  0  0  0  0  0  0
   -3.2186    0.2062    0.0000 O   0  0  0  0  0  0  0  0  0  0  0  0
  2  1  1  0
  3  2  2  0
  4  1  1  0
  5  8  1  0
  6  3  1  0
  4  7  1  6
  8  4  1  0
  9  2  1  0
 10 13  1  0
 11  7  2  0
 12 11  1  0
 13  9  2  0
 14 16  1  0
 15  7  1  0
 16 15  2  0
 17  6  1  0
  8 18  1  1
 19 12  1  0
 20 14  1  0
 21 13  1  0
  3  5  1  0
 10  6  2  0
 12 14  2  0
M  END
>  <DATABASE_ID>  (1) 
DB14086

>  <DATABASE_NAME>  (1) 
drugbank

>  <SMILES>  (1) 
O[C@H]1CC2=C(O)C=C(O)C=C2O[C@@H]1C1=CC=C(O)C(O)=C1

>  <INCHI_IDENTIFIER>  (1) 
InChI=1S/C15H14O6/c16-8-4-11(18)9-6-13(20)15(21-14(9)5-8)7-1-2-10(17)12(19)3-7/h1-5,13,15-20H,6H2/t13-,15+/m0/s1

>  <INCHI_KEY>  (1) 
PFTAWBLQPZVEMU-DZGCQCFKSA-N

>  <FORMULA>  (1) 
C15H14O6

>  <MOLECULAR_WEIGHT>  (1) 
290.2681

>  <EXACT_MASS>  (1) 
290.07903818

>  <JCHEM_ACCEPTOR_COUNT>  (1) 
6

>  <JCHEM_ATOM_COUNT>  (1) 
35

>  <JCHEM_AVERAGE_POLARIZABILITY>  (1) 
27.8872798853884

>  <JCHEM_BIOAVAILABILITY>  (1) 
1

>  <JCHEM_DONOR_COUNT>  (1) 
5

>  <JCHEM_FORMAL_CHARGE>  (1) 
0

>  <JCHEM_GHOSE_FILTER>  (1) 
1

>  <JCHEM_IUPAC>  (1) 
(2R,3S)-2-(3,4-dihydroxyphenyl)-3,4-dihydro-2H-1-benzopyran-3,5,7-triol

>  <ALOGPS_LOGP>  (1) 
1.02

>  <JCHEM_LOGP>  (1) 
1.795107015333333

>  <ALOGPS_LOGS>  (1) 
-2.65

>  <JCHEM_MDDR_LIKE_RULE>  (1) 
0

>  <JCHEM_NUMBER_OF_RINGS>  (1) 
3

>  <JCHEM_PHYSIOLOGICAL_CHARGE>  (1) 
0

>  <JCHEM_PKA>  (1) 
9.624022697297178

>  <JCHEM_PKA_STRONGEST_ACIDIC>  (1) 
9.004573813837975

>  <JCHEM_PKA_STRONGEST_BASIC>  (1) 
-3.289719332242856

>  <JCHEM_POLAR_SURFACE_AREA>  (1) 
110.38000000000001

>  <JCHEM_REFRACTIVITY>  (1) 
73.99970000000003

>  <JCHEM_ROTATABLE_BOND_COUNT>  (1) 
1

>  <JCHEM_RULE_OF_FIVE>  (1) 
1

>  <ALOGPS_SOLUBILITY>  (1) 
6.45e-01 g/l

>  <JCHEM_TRADITIONAL_IUPAC>  (1) 
(+)-catechol

>  <JCHEM_VEBER_RULE>  (1) 
0

>  <DRUGBANK_ID>  (1) 
DB14086

>  <DRUG_GROUPS>  (1) 
approved; investigational; withdrawn

>  <GENERIC_NAME>  (1) 
Cianidanol

>  <SYNONYMS>  (1) 
(+)-catechin; (+)-Catechol; (+)-Cyanidan-3-ol; (+)-Cyanidanol; (2R,3S)-(+)-Catechin; (2R,3S)-catechin; Catechin; Catechuic acid; Cianidanol; Cianidanolum; D-(+)-Catechin; d-Catechin; D-Catechol

>  <PRODUCTS>  (1) 
Slim 2

>  <SALTS>  (1) 
Cianidanol hydrate

$$$$
