
     RDKit          2D

 28 30  0  0  1  0  0  0  0  0999 V2000
    0.9075   -6.6954    0.0000 C   0  0  0  0  0  0  0  0  0  0  0  0
    1.6219   -7.1079    0.0000 C   0  0  0  0  0  0  0  0  0  0  0  0
    2.3364   -6.6954    0.0000 O   0  0  0  0  0  0  0  0  0  0  0  0
    3.0509   -7.1079    0.0000 C   0  0  0  0  0  0  0  0  0  0  0  0
    3.0509   -7.9329    0.0000 O   0  0  0  0  0  0  0  0  0  0  0  0
    3.7654   -6.6954    0.0000 C   0  0  0  0  0  0  0  0  0  0  0  0
    4.4798   -7.1079    0.0000 N   0  0  0  0  0  0  0  0  0  0  0  0
    3.9949   -7.7754    0.0000 C   0  0  0  0  0  0  0  0  0  0  0  0
    4.8154   -6.3543    0.0000 C   0  0  0  0  0  0  0  0  0  0  0  0
    5.6359   -6.4405    0.0000 C   0  0  0  0  0  0  0  0  0  0  0  0
    5.8074   -7.2475    0.0000 C   0  0  0  0  0  0  0  0  0  0  0  0
    5.0929   -7.6600    0.0000 C   0  0  0  0  0  0  0  0  0  0  0  0
    6.5611   -7.5830    0.0000 O   0  0  0  0  0  0  0  0  0  0  0  0
    7.2285   -7.0981    0.0000 C   0  0  0  0  0  0  0  0  0  0  0  0
    7.1423   -6.2776    0.0000 O   0  0  0  0  0  0  0  0  0  0  0  0
    7.9822   -7.4337    0.0000 C   0  0  0  0  0  0  0  0  0  0  0  0
    7.6466   -8.1873    0.0000 O   0  0  0  0  0  0  0  0  0  0  0  0
    8.3177   -6.6800    0.0000 C   0  0  0  0  0  0  0  0  0  0  0  0
    7.9052   -5.9655    0.0000 C   0  0  0  0  0  0  0  0  0  0  0  0
    8.4573   -5.3524    0.0000 C   0  0  0  0  0  0  0  0  0  0  0  0
    9.2109   -5.6880    0.0000 C   0  0  0  0  0  0  0  0  0  0  0  0
    9.1247   -6.5085    0.0000 C   0  0  0  0  0  0  0  0  0  0  0  0
    8.7359   -7.7692    0.0000 C   0  0  0  0  0  0  0  0  0  0  0  0
    9.4033   -7.2843    0.0000 C   0  0  0  0  0  0  0  0  0  0  0  0
   10.1570   -7.6198    0.0000 C   0  0  0  0  0  0  0  0  0  0  0  0
   10.2432   -8.4403    0.0000 C   0  0  0  0  0  0  0  0  0  0  0  0
    9.5758   -8.9252    0.0000 C   0  0  0  0  0  0  0  0  0  0  0  0
    8.8221   -8.5897    0.0000 C   0  0  0  0  0  0  0  0  0  0  0  0
  1  2  1  0
  2  3  1  0
  3  4  1  0
  4  5  2  0
  4  6  1  0
  6  7  1  0
  7  8  1  0
  7  9  1  0
  9 10  1  0
 11 10  1  0
 11 12  1  0
  7 12  1  0
 11 13  1  1
 13 14  1  0
 14 15  2  0
 16 14  1  0
 16 17  1  6
 16 18  1  0
 18 19  1  0
 19 20  1  0
 20 21  1  0
 21 22  1  0
 18 22  1  0
 16 23  1  0
 23 24  2  0
 24 25  1  0
 25 26  2  0
 26 27  1  0
 27 28  2  0
 23 28  1  0
M  CHG  1   7   1
M  END
>  <DATABASE_ID>  (1) 
DB19325

>  <DATABASE_NAME>  (1) 
drugbank

>  <SMILES>  (1) 
CCOC(=O)C[N+]1(C)CC[C@H](C1)OC(=O)[C@@](O)(C1CCCC1)C1=CC=CC=C1

>  <INCHI_IDENTIFIER>  (1) 
InChI=1S/C22H32NO5/c1-3-27-20(24)16-23(2)14-13-19(15-23)28-21(25)22(26,18-11-7-8-12-18)17-9-5-4-6-10-17/h4-6,9-10,18-19,26H,3,7-8,11-16H2,1-2H3/q+1/t19-,22-,23?/m1/s1

>  <INCHI_KEY>  (1) 
SEVCTUCCZYBJER-BSJAROSPSA-N

>  <FORMULA>  (1) 
C22H32NO5

>  <MOLECULAR_WEIGHT>  (1) 
390.499

>  <EXACT_MASS>  (1) 
390.227499555

>  <DRUGBANK_ID>  (1) 
DB19325

>  <DRUG_GROUPS>  (1) 
approved

>  <GENERIC_NAME>  (1) 
Sofpironium

>  <SYNONYMS>  (1) 
Pyrrolidinium, 3-(((2r)-2-cyclopentyl-2-hydroxy-2-phenylacetyl)oxy)-1-(2-ethoxy-2-oxoethyl)-1-methyl-, (3r)-; Sofpironium cation; Sofpironium ion

>  <PRODUCTS>  (1) 
Sofdra

>  <SALTS>  (1) 
Sofpironium bromide

$$$$
