
     RDKit          2D

195203  0  2  1  0  0  0  0  0999 V2000
   -1.4128   -0.6983    0.0000 C   0  0  0  0  0  0  0  0  0  0  0  0
   -2.1271   -1.1110    0.0000 C   0  0  0  0  0  0  0  0  0  0  0  0
   -2.1271   -1.9358    0.0000 O   0  0  0  0  0  0  0  0  0  0  0  0
   -2.8417   -0.6983    0.0000 C   0  0  0  0  0  0  0  0  0  0  0  0
   -2.8417    0.1266    0.0000 C   0  0  0  0  0  0  0  0  0  0  0  0
   -2.8417    0.9514    0.0000 H   0  0  0  0  0  0  0  0  0  0  0  0
   -2.1271    0.5390    0.0000 C   0  0  0  0  0  0  0  0  0  0  0  0
   -1.4128    0.1266    0.0000 C   0  0  0  0  0  0  0  0  0  0  0  0
   -1.4128    0.9514    0.0000 H   0  0  0  0  0  0  0  0  0  0  0  0
   -0.6982    0.5390    0.0000 C   0  0  0  0  0  0  0  0  0  0  0  0
    0.0162    0.1266    0.0000 C   0  0  0  0  0  0  0  0  0  0  0  0
    0.7305    0.5391    0.0000 O   0  0  0  0  0  0  0  0  0  0  0  0
    0.0162   -0.6983    0.0000 C   0  0  0  0  0  0  0  0  0  0  0  0
   -0.6982   -1.1109    0.0000 C   0  0  0  0  0  0  0  0  0  0  0  0
   -0.6982   -1.9358    0.0000 O   0  0  0  0  0  0  0  0  0  0  0  0
    0.7305   -1.1109    0.0000 C   0  0  0  0  0  0  0  0  0  0  0  0
    1.4451   -0.6983    0.0000 N   0  0  0  0  0  0  0  0  0  0  0  0
    0.7305   -1.9358    0.0000 O   0  0  0  0  0  0  0  0  0  0  0  0
   -0.6982    1.3641    0.0000 N   0  0  0  0  0  0  0  0  0  0  0  0
    0.0162    1.7766    0.0000 C   0  0  0  0  0  0  0  0  0  0  0  0
   -1.4128    1.7766    0.0000 C   0  0  0  0  0  0  0  0  0  0  0  0
   -3.5561    0.5390    0.0000 C   0  0  0  0  0  0  0  0  0  0  0  0
   -4.0864    1.1711    0.0000 O   0  0  0  0  0  0  0  0  0  0  0  0
   -3.1435    1.2535    0.0000 C   0  0  0  0  0  0  0  0  0  0  0  0
   -4.2705    0.1266    0.0000 C   0  0  0  0  0  0  0  0  0  0  0  0
   -4.9850    0.5390    0.0000 C   0  0  0  0  0  0  0  0  0  0  0  0
   -5.6996    0.1265    0.0000 C   0  0  0  0  0  0  0  0  0  0  0  0
   -5.6996   -0.6983    0.0000 C   0  0  0  0  0  0  0  0  0  0  0  0
   -4.9850   -1.1110    0.0000 C   0  0  0  0  0  0  0  0  0  0  0  0
   -4.9850   -1.9358    0.0000 O   0  0  0  0  0  0  0  0  0  0  0  0
   -4.2705   -0.6983    0.0000 C   0  0  0  0  0  0  0  0  0  0  0  0
   -3.5561   -1.1110    0.0000 C   0  0  0  0  0  0  0  0  0  0  0  0
   -3.5561   -1.9358    0.0000 O   0  0  0  0  0  0  0  0  0  0  0  0
   -1.4128   -1.5234    0.0000 O   0  0  0  0  0  0  0  0  0  0  0  0
    4.8228    1.2423    0.0000 P   0  0  0  0  0  0  0  0  0  0  0  0
    4.8228    2.0673    0.0000 O   0  0  0  0  0  0  0  0  0  0  0  0
    3.9978    1.2423    0.0000 O   0  0  0  0  0  0  0  0  0  0  0  0
    5.4062    0.6589    0.0000 O   0  0  0  0  0  0  0  0  0  0  0  0
    5.1625   -2.0673    0.0000 O   0  0  0  0  0  0  0  0  0  0  0  0
    3.7540   -1.4840    0.0000 O   0  0  0  0  0  0  0  0  0  0  0  0
    4.5791   -0.6588    0.0000 O   0  0  0  0  0  0  0  0  0  0  0  0
    4.5791   -1.4840    0.0000 P   0  0  0  0  0  0  0  0  0  0  0  0
    5.6996   -1.1552    0.0000 Na  0  0  0  0  0 15  0  0  0  0  0  0
    4.8228    1.2423    0.0000 P   0  0  0  0  0  0  0  0  0  0  0  0
    4.8228    2.0673    0.0000 O   0  0  0  0  0  0  0  0  0  0  0  0
    3.9978    1.2423    0.0000 O   0  0  0  0  0  0  0  0  0  0  0  0
    5.4062    0.6589    0.0000 O   0  0  0  0  0  0  0  0  0  0  0  0
    4.8228    1.2423    0.0000 P   0  0  0  0  0  0  0  0  0  0  0  0
    4.8228    2.0673    0.0000 O   0  0  0  0  0  0  0  0  0  0  0  0
    3.9978    1.2423    0.0000 O   0  0  0  0  0  0  0  0  0  0  0  0
    5.4062    0.6589    0.0000 O   0  0  0  0  0  0  0  0  0  0  0  0
    4.8228    1.2423    0.0000 P   0  0  0  0  0  0  0  0  0  0  0  0
    4.8228    2.0673    0.0000 O   0  0  0  0  0  0  0  0  0  0  0  0
    3.9978    1.2423    0.0000 O   0  0  0  0  0  0  0  0  0  0  0  0
    5.4062    0.6589    0.0000 O   0  0  0  0  0  0  0  0  0  0  0  0
    4.8228    1.2423    0.0000 P   0  0  0  0  0  0  0  0  0  0  0  0
    4.8228    2.0673    0.0000 O   0  0  0  0  0  0  0  0  0  0  0  0
    3.9978    1.2423    0.0000 O   0  0  0  0  0  0  0  0  0  0  0  0
    5.4062    0.6589    0.0000 O   0  0  0  0  0  0  0  0  0  0  0  0
   -1.4128   -0.6983    0.0000 C   0  0  0  0  0  0  0  0  0  0  0  0
   -2.1271   -1.1110    0.0000 C   0  0  0  0  0  0  0  0  0  0  0  0
   -2.1271   -1.9358    0.0000 O   0  0  0  0  0  0  0  0  0  0  0  0
   -2.8417   -0.6983    0.0000 C   0  0  0  0  0  0  0  0  0  0  0  0
   -2.8417    0.1266    0.0000 C   0  0  0  0  0  0  0  0  0  0  0  0
   -2.8417    0.9514    0.0000 H   0  0  0  0  0  0  0  0  0  0  0  0
   -2.1271    0.5390    0.0000 C   0  0  0  0  0  0  0  0  0  0  0  0
   -1.4128    0.1266    0.0000 C   0  0  0  0  0  0  0  0  0  0  0  0
   -1.4128    0.9514    0.0000 H   0  0  0  0  0  0  0  0  0  0  0  0
   -0.6982    0.5390    0.0000 C   0  0  0  0  0  0  0  0  0  0  0  0
    0.0162    0.1266    0.0000 C   0  0  0  0  0  0  0  0  0  0  0  0
    0.7305    0.5391    0.0000 O   0  0  0  0  0  0  0  0  0  0  0  0
    0.0162   -0.6983    0.0000 C   0  0  0  0  0  0  0  0  0  0  0  0
   -0.6982   -1.1109    0.0000 C   0  0  0  0  0  0  0  0  0  0  0  0
   -0.6982   -1.9358    0.0000 O   0  0  0  0  0  0  0  0  0  0  0  0
    0.7305   -1.1109    0.0000 C   0  0  0  0  0  0  0  0  0  0  0  0
    1.4451   -0.6983    0.0000 N   0  0  0  0  0  0  0  0  0  0  0  0
    0.7305   -1.9358    0.0000 O   0  0  0  0  0  0  0  0  0  0  0  0
   -0.6982    1.3641    0.0000 N   0  0  0  0  0  0  0  0  0  0  0  0
    0.0162    1.7766    0.0000 C   0  0  0  0  0  0  0  0  0  0  0  0
   -1.4128    1.7766    0.0000 C   0  0  0  0  0  0  0  0  0  0  0  0
   -3.5561    0.5390    0.0000 C   0  0  0  0  0  0  0  0  0  0  0  0
   -4.0864    1.1711    0.0000 O   0  0  0  0  0  0  0  0  0  0  0  0
   -3.1435    1.2535    0.0000 C   0  0  0  0  0  0  0  0  0  0  0  0
   -4.2705    0.1266    0.0000 C   0  0  0  0  0  0  0  0  0  0  0  0
   -4.9850    0.5390    0.0000 C   0  0  0  0  0  0  0  0  0  0  0  0
   -5.6996    0.1265    0.0000 C   0  0  0  0  0  0  0  0  0  0  0  0
   -5.6996   -0.6983    0.0000 C   0  0  0  0  0  0  0  0  0  0  0  0
   -4.9850   -1.1110    0.0000 C   0  0  0  0  0  0  0  0  0  0  0  0
   -4.9850   -1.9358    0.0000 O   0  0  0  0  0  0  0  0  0  0  0  0
   -4.2705   -0.6983    0.0000 C   0  0  0  0  0  0  0  0  0  0  0  0
   -3.5561   -1.1110    0.0000 C   0  0  0  0  0  0  0  0  0  0  0  0
   -3.5561   -1.9358    0.0000 O   0  0  0  0  0  0  0  0  0  0  0  0
   -1.4128   -1.5234    0.0000 O   0  0  0  0  0  0  0  0  0  0  0  0
   -1.4128   -0.6983    0.0000 C   0  0  0  0  0  0  0  0  0  0  0  0
   -2.1271   -1.1110    0.0000 C   0  0  0  0  0  0  0  0  0  0  0  0
   -2.1271   -1.9358    0.0000 O   0  0  0  0  0  0  0  0  0  0  0  0
   -2.8417   -0.6983    0.0000 C   0  0  0  0  0  0  0  0  0  0  0  0
   -2.8417    0.1266    0.0000 C   0  0  0  0  0  0  0  0  0  0  0  0
   -2.8417    0.9514    0.0000 H   0  0  0  0  0  0  0  0  0  0  0  0
   -2.1271    0.5390    0.0000 C   0  0  0  0  0  0  0  0  0  0  0  0
   -1.4128    0.1266    0.0000 C   0  0  0  0  0  0  0  0  0  0  0  0
   -1.4128    0.9514    0.0000 H   0  0  0  0  0  0  0  0  0  0  0  0
   -0.6982    0.5390    0.0000 C   0  0  0  0  0  0  0  0  0  0  0  0
    0.0162    0.1266    0.0000 C   0  0  0  0  0  0  0  0  0  0  0  0
    0.7305    0.5391    0.0000 O   0  0  0  0  0  0  0  0  0  0  0  0
    0.0162   -0.6983    0.0000 C   0  0  0  0  0  0  0  0  0  0  0  0
   -0.6982   -1.1109    0.0000 C   0  0  0  0  0  0  0  0  0  0  0  0
   -0.6982   -1.9358    0.0000 O   0  0  0  0  0  0  0  0  0  0  0  0
    0.7305   -1.1109    0.0000 C   0  0  0  0  0  0  0  0  0  0  0  0
    1.4451   -0.6983    0.0000 N   0  0  0  0  0  0  0  0  0  0  0  0
    0.7305   -1.9358    0.0000 O   0  0  0  0  0  0  0  0  0  0  0  0
   -0.6982    1.3641    0.0000 N   0  0  0  0  0  0  0  0  0  0  0  0
    0.0162    1.7766    0.0000 C   0  0  0  0  0  0  0  0  0  0  0  0
   -1.4128    1.7766    0.0000 C   0  0  0  0  0  0  0  0  0  0  0  0
   -3.5561    0.5390    0.0000 C   0  0  0  0  0  0  0  0  0  0  0  0
   -4.0864    1.1711    0.0000 O   0  0  0  0  0  0  0  0  0  0  0  0
   -3.1435    1.2535    0.0000 C   0  0  0  0  0  0  0  0  0  0  0  0
   -4.2705    0.1266    0.0000 C   0  0  0  0  0  0  0  0  0  0  0  0
   -4.9850    0.5390    0.0000 C   0  0  0  0  0  0  0  0  0  0  0  0
   -5.6996    0.1265    0.0000 C   0  0  0  0  0  0  0  0  0  0  0  0
   -5.6996   -0.6983    0.0000 C   0  0  0  0  0  0  0  0  0  0  0  0
   -4.9850   -1.1110    0.0000 C   0  0  0  0  0  0  0  0  0  0  0  0
   -4.9850   -1.9358    0.0000 O   0  0  0  0  0  0  0  0  0  0  0  0
   -4.2705   -0.6983    0.0000 C   0  0  0  0  0  0  0  0  0  0  0  0
   -3.5561   -1.1110    0.0000 C   0  0  0  0  0  0  0  0  0  0  0  0
   -3.5561   -1.9358    0.0000 O   0  0  0  0  0  0  0  0  0  0  0  0
   -1.4128   -1.5234    0.0000 O   0  0  0  0  0  0  0  0  0  0  0  0
   -1.4128   -0.6983    0.0000 C   0  0  0  0  0  0  0  0  0  0  0  0
   -2.1271   -1.1110    0.0000 C   0  0  0  0  0  0  0  0  0  0  0  0
   -2.1271   -1.9358    0.0000 O   0  0  0  0  0  0  0  0  0  0  0  0
   -2.8417   -0.6983    0.0000 C   0  0  0  0  0  0  0  0  0  0  0  0
   -2.8417    0.1266    0.0000 C   0  0  0  0  0  0  0  0  0  0  0  0
   -2.8417    0.9514    0.0000 H   0  0  0  0  0  0  0  0  0  0  0  0
   -2.1271    0.5390    0.0000 C   0  0  0  0  0  0  0  0  0  0  0  0
   -1.4128    0.1266    0.0000 C   0  0  0  0  0  0  0  0  0  0  0  0
   -1.4128    0.9514    0.0000 H   0  0  0  0  0  0  0  0  0  0  0  0
   -0.6982    0.5390    0.0000 C   0  0  0  0  0  0  0  0  0  0  0  0
    0.0162    0.1266    0.0000 C   0  0  0  0  0  0  0  0  0  0  0  0
    0.7305    0.5391    0.0000 O   0  0  0  0  0  0  0  0  0  0  0  0
    0.0162   -0.6983    0.0000 C   0  0  0  0  0  0  0  0  0  0  0  0
   -0.6982   -1.1109    0.0000 C   0  0  0  0  0  0  0  0  0  0  0  0
   -0.6982   -1.9358    0.0000 O   0  0  0  0  0  0  0  0  0  0  0  0
    0.7305   -1.1109    0.0000 C   0  0  0  0  0  0  0  0  0  0  0  0
    1.4451   -0.6983    0.0000 N   0  0  0  0  0  0  0  0  0  0  0  0
    0.7305   -1.9358    0.0000 O   0  0  0  0  0  0  0  0  0  0  0  0
   -0.6982    1.3641    0.0000 N   0  0  0  0  0  0  0  0  0  0  0  0
    0.0162    1.7766    0.0000 C   0  0  0  0  0  0  0  0  0  0  0  0
   -1.4128    1.7766    0.0000 C   0  0  0  0  0  0  0  0  0  0  0  0
   -3.5561    0.5390    0.0000 C   0  0  0  0  0  0  0  0  0  0  0  0
   -4.0864    1.1711    0.0000 O   0  0  0  0  0  0  0  0  0  0  0  0
   -3.1435    1.2535    0.0000 C   0  0  0  0  0  0  0  0  0  0  0  0
   -4.2705    0.1266    0.0000 C   0  0  0  0  0  0  0  0  0  0  0  0
   -4.9850    0.5390    0.0000 C   0  0  0  0  0  0  0  0  0  0  0  0
   -5.6996    0.1265    0.0000 C   0  0  0  0  0  0  0  0  0  0  0  0
   -5.6996   -0.6983    0.0000 C   0  0  0  0  0  0  0  0  0  0  0  0
   -4.9850   -1.1110    0.0000 C   0  0  0  0  0  0  0  0  0  0  0  0
   -4.9850   -1.9358    0.0000 O   0  0  0  0  0  0  0  0  0  0  0  0
   -4.2705   -0.6983    0.0000 C   0  0  0  0  0  0  0  0  0  0  0  0
   -3.5561   -1.1110    0.0000 C   0  0  0  0  0  0  0  0  0  0  0  0
   -3.5561   -1.9358    0.0000 O   0  0  0  0  0  0  0  0  0  0  0  0
   -1.4128   -1.5234    0.0000 O   0  0  0  0  0  0  0  0  0  0  0  0
   -1.4128   -0.6983    0.0000 C   0  0  0  0  0  0  0  0  0  0  0  0
   -2.1271   -1.1110    0.0000 C   0  0  0  0  0  0  0  0  0  0  0  0
   -2.1271   -1.9358    0.0000 O   0  0  0  0  0  0  0  0  0  0  0  0
   -2.8417   -0.6983    0.0000 C   0  0  0  0  0  0  0  0  0  0  0  0
   -2.8417    0.1266    0.0000 C   0  0  0  0  0  0  0  0  0  0  0  0
   -2.8417    0.9514    0.0000 H   0  0  0  0  0  0  0  0  0  0  0  0
   -2.1271    0.5390    0.0000 C   0  0  0  0  0  0  0  0  0  0  0  0
   -1.4128    0.1266    0.0000 C   0  0  0  0  0  0  0  0  0  0  0  0
   -1.4128    0.9514    0.0000 H   0  0  0  0  0  0  0  0  0  0  0  0
   -0.6982    0.5390    0.0000 C   0  0  0  0  0  0  0  0  0  0  0  0
    0.0162    0.1266    0.0000 C   0  0  0  0  0  0  0  0  0  0  0  0
    0.7305    0.5391    0.0000 O   0  0  0  0  0  0  0  0  0  0  0  0
    0.0162   -0.6983    0.0000 C   0  0  0  0  0  0  0  0  0  0  0  0
   -0.6982   -1.1109    0.0000 C   0  0  0  0  0  0  0  0  0  0  0  0
   -0.6982   -1.9358    0.0000 O   0  0  0  0  0  0  0  0  0  0  0  0
    0.7305   -1.1109    0.0000 C   0  0  0  0  0  0  0  0  0  0  0  0
    1.4451   -0.6983    0.0000 N   0  0  0  0  0  0  0  0  0  0  0  0
    0.7305   -1.9358    0.0000 O   0  0  0  0  0  0  0  0  0  0  0  0
   -0.6982    1.3641    0.0000 N   0  0  0  0  0  0  0  0  0  0  0  0
    0.0162    1.7766    0.0000 C   0  0  0  0  0  0  0  0  0  0  0  0
   -1.4128    1.7766    0.0000 C   0  0  0  0  0  0  0  0  0  0  0  0
   -3.5561    0.5390    0.0000 C   0  0  0  0  0  0  0  0  0  0  0  0
   -4.0864    1.1711    0.0000 O   0  0  0  0  0  0  0  0  0  0  0  0
   -3.1435    1.2535    0.0000 C   0  0  0  0  0  0  0  0  0  0  0  0
   -4.2705    0.1266    0.0000 C   0  0  0  0  0  0  0  0  0  0  0  0
   -4.9850    0.5390    0.0000 C   0  0  0  0  0  0  0  0  0  0  0  0
   -5.6996    0.1265    0.0000 C   0  0  0  0  0  0  0  0  0  0  0  0
   -5.6996   -0.6983    0.0000 C   0  0  0  0  0  0  0  0  0  0  0  0
   -4.9850   -1.1110    0.0000 C   0  0  0  0  0  0  0  0  0  0  0  0
   -4.9850   -1.9358    0.0000 O   0  0  0  0  0  0  0  0  0  0  0  0
   -4.2705   -0.6983    0.0000 C   0  0  0  0  0  0  0  0  0  0  0  0
   -3.5561   -1.1110    0.0000 C   0  0  0  0  0  0  0  0  0  0  0  0
   -3.5561   -1.9358    0.0000 O   0  0  0  0  0  0  0  0  0  0  0  0
   -1.4128   -1.5234    0.0000 O   0  0  0  0  0  0  0  0  0  0  0  0
  2  1  1  0
  8  1  1  0
 14  1  1  0
  1 34  1  6
  3  2  1  0
  4  2  2  0
  4  5  1  0
 32  4  1  0
  5  6  1  6
  5  7  1  0
 22  5  1  0
  7  8  1  0
  8  9  1  6
 10  8  1  0
 11 10  1  0
 10 19  1  6
 12 11  1  0
 13 11  2  0
 13 14  1  0
 16 13  1  0
 15 14  2  0
 17 16  1  0
 18 16  2  0
 20 19  1  0
 21 19  1  0
 22 23  1  0
 22 24  1  6
 25 22  1  0
 26 25  2  0
 31 25  1  0
 27 26  1  0
 27 28  2  0
 28 29  1  0
 30 29  1  0
 29 31  2  0
 31 32  1  0
 33 32  2  0
 35 36  1  0
 35 37  2  0
 35 38  2  0
 42 39  2  0
 42 40  2  0
 42 41  1  0
163162  1  0
169162  1  0
175162  1  0
162195  1  6
164163  1  0
165163  2  0
165166  1  0
193165  1  0
166167  1  6
166168  1  0
183166  1  0
168169  1  0
169170  1  6
171169  1  0
172171  1  0
171180  1  6
173172  1  0
174172  2  0
174175  1  0
177174  1  0
176175  2  0
178177  1  0
179177  2  0
181180  1  0
182180  1  0
183184  1  0
183185  1  6
186183  1  0
187186  2  0
192186  1  0
188187  1  0
188189  2  0
189190  1  0
191190  1  0
190192  2  0
192193  1  0
194193  2  0
129128  1  0
135128  1  0
141128  1  0
128161  1  6
130129  1  0
131129  2  0
131132  1  0
159131  1  0
132133  1  6
132134  1  0
149132  1  0
134135  1  0
135136  1  6
137135  1  0
138137  1  0
137146  1  6
139138  1  0
140138  2  0
140141  1  0
143140  1  0
142141  2  0
144143  1  0
145143  2  0
147146  1  0
148146  1  0
149150  1  0
149151  1  6
152149  1  0
153152  2  0
158152  1  0
154153  1  0
154155  2  0
155156  1  0
157156  1  0
156158  2  0
158159  1  0
160159  2  0
 95 94  1  0
101 94  1  0
107 94  1  0
 94127  1  6
 96 95  1  0
 97 95  2  0
 97 98  1  0
125 97  1  0
 98 99  1  6
 98100  1  0
115 98  1  0
100101  1  0
101102  1  6
103101  1  0
104103  1  0
103112  1  6
105104  1  0
106104  2  0
106107  1  0
109106  1  0
108107  2  0
110109  1  0
111109  2  0
113112  1  0
114112  1  0
115116  1  0
115117  1  6
118115  1  0
119118  2  0
124118  1  0
120119  1  0
120121  2  0
121122  1  0
123122  1  0
122124  2  0
124125  1  0
126125  2  0
 61 60  1  0
 67 60  1  0
 73 60  1  0
 60 93  1  6
 62 61  1  0
 63 61  2  0
 63 64  1  0
 91 63  1  0
 64 65  1  6
 64 66  1  0
 81 64  1  0
 66 67  1  0
 67 68  1  6
 69 67  1  0
 70 69  1  0
 69 78  1  6
 71 70  1  0
 72 70  2  0
 72 73  1  0
 75 72  1  0
 74 73  2  0
 76 75  1  0
 77 75  2  0
 79 78  1  0
 80 78  1  0
 81 82  1  0
 81 83  1  6
 84 81  1  0
 85 84  2  0
 90 84  1  0
 86 85  1  0
 86 87  2  0
 87 88  1  0
 89 88  1  0
 88 90  2  0
 90 91  1  0
 92 91  2  0
 56 57  1  0
 56 58  2  0
 56 59  2  0
 52 53  1  0
 52 54  2  0
 52 55  2  0
 48 49  1  0
 48 50  2  0
 48 51  2  0
 44 45  1  0
 44 46  2  0
 44 47  2  0
M  CHG  2  41  -1  43   1
M  STY  2   1 SRU   2 SRU
M  SAL   1 15   1   2   3   4   5   6   7   8   9  10  11  12  13  14  15
M  SAL   1 15  16  17  18  19  20  21  22  23  24  25  26  27  28  29  30
M  SAL   1  4  31  32  33  34
M  SDI   1  4   -6.1121   -2.3483   -6.1121    2.1891
M  SDI   1  4    1.8576    2.1891    1.8576   -2.3483
M  SMT   1 5
M  SAL   2  4  35  36  37  38
M  SDI   2  4    3.5853    0.2464    3.5853    2.4798
M  SDI   2  4    5.8187    2.4798    5.8187    0.2464
M  SMT   2 5
M  END
>  <DATABASE_ID>  (1) 
DB09550

>  <DATABASE_NAME>  (1) 
drugbank

>  <SMILES>  (1) 
[Na+].OP(=O)=O.OP(=O)=O.OP(=O)=O.OP(=O)=O.OP(=O)=O.[O-]P(=O)=O.[H][C@@]12C[C@@]3([H])C(=C(O)[C@]1(O)C(=O)C(C(N)=O)=C(O)[C@H]2N(C)C)C(=O)C1=C(O)C=CC=C1[C@@]3(C)O.[H][C@@]12C[C@@]3([H])C(=C(O)[C@]1(O)C(=O)C(C(N)=O)=C(O)[C@H]2N(C)C)C(=O)C1=C(O)C=CC=C1[C@@]3(C)O.[H][C@@]12C[C@@]3([H])C(=C(O)[C@]1(O)C(=O)C(C(N)=O)=C(O)[C@H]2N(C)C)C(=O)C1=C(O)C=CC=C1[C@@]3(C)O.[H][C@@]12C[C@@]3([H])C(=C(O)[C@]1(O)C(=O)C(C(N)=O)=C(O)[C@H]2N(C)C)C(=O)C1=C(O)C=CC=C1[C@@]3(C)O.[H][C@@]12C[C@@]3([H])C(=C(O)[C@]1(O)C(=O)C(C(N)=O)=C(O)[C@H]2N(C)C)C(=O)C1=C(O)C=CC=C1[C@@]3(C)O

>  <INCHI_IDENTIFIER>  (1) 
InChI=1S/5C22H24N2O8.Na.6HO3P/c5*1-21(31)8-5-4-6-11(25)12(8)16(26)13-9(21)7-10-15(24(2)3)17(27)14(20(23)30)19(29)22(10,32)18(13)28;;6*1-4(2)3/h5*4-6,9-10,15,25,27-28,31-32H,7H2,1-3H3,(H2,23,30);;6*(H,1,2,3)/q;;;;;+1;;;;;;/p-1/t5*9-,10-,15-,21+,22-;;;;;;;/m00000......./s1

>  <INCHI_KEY>  (1) 
DKNFPOTZPZOJHC-LBTQIPEASA-M

>  <FORMULA>  (1) 
C198H225N18NaO102P10

>  <MOLECULAR_WEIGHT>  (1) 
4821.729

>  <EXACT_MASS>  (1) 
4819.02464482

>  <JCHEM_ATOM_COUNT>  (1) 
554

>  <JCHEM_FORMAL_CHARGE>  (1) 
0

>  <JCHEM_GHOSE_FILTER>  (1) 
0

>  <ALOGPS_LOGP>  (1) 
-0.56

>  <ALOGPS_LOGS>  (1) 
-2.52

>  <JCHEM_RULE_OF_FIVE>  (1) 
0

>  <ALOGPS_SOLUBILITY>  (1) 
1.33e+00 g/l

>  <JCHEM_TRADITIONAL_IUPAC>  (1) 
Pam2CSK4

>  <DRUGBANK_ID>  (1) 
DB09550

>  <DRUG_GROUPS>  (1) 
approved

>  <GENERIC_NAME>  (1) 
Tetracycline phosphate complex

>  <SYNONYMS>  (1) 
Tetracycline metaphosphate; Tetracycline phosphate complex

>  <INTERNATIONAL_BRANDS>  (1) 
Sumycin; Telotrex; Tetrex; Tetrex BidCaps; Upcyclin

$$$$
