
     RDKit          2D

 22 22  0  0  0  0  0  0  0  0999 V2000
   -1.0719   -0.2037    0.0000 C   0  0  0  0  0  0  0  0  0  0  0  0
   -1.0719   -1.0288    0.0000 C   0  0  0  0  0  0  0  0  0  0  0  0
   -0.3574    0.2087    0.0000 C   0  0  0  0  0  0  0  0  0  0  0  0
   -0.3574   -1.4413    0.0000 C   0  0  0  0  0  0  0  0  0  0  0  0
    0.3569   -0.2037    0.0000 C   0  0  0  0  0  0  0  0  0  0  0  0
    0.3569   -1.0288    0.0000 C   0  0  0  0  0  0  0  0  0  0  0  0
   -1.7869   -1.4407    0.0000 C   0  0  0  0  0  0  0  0  0  0  0  0
   -2.5010   -1.0274    0.0000 C   0  0  0  0  0  0  0  0  0  0  0  0
   -3.2159   -1.4394    0.0000 C   0  0  0  0  0  0  0  0  0  0  0  0
   -3.9300   -1.0260    0.0000 C   0  0  0  0  0  0  0  0  0  0  0  0
    1.0721    0.2074    0.0000 C   0  0  0  0  0  0  0  0  0  0  0  0
    1.7859   -0.2062    0.0000 C   0  0  0  0  0  0  0  0  0  0  0  0
    2.5012    0.2050    0.0000 C   0  0  0  0  0  0  0  0  0  0  0  0
    3.2149   -0.2086    0.0000 C   0  0  0  0  0  0  0  0  0  0  0  0
    3.9301    0.2025    0.0000 O   0  0  0  0  0  0  0  0  0  0  0  0
    2.5026    1.0299    0.0000 C   0  0  0  0  0  0  0  0  0  0  0  0
    3.2178    1.4413    0.0000 O   0  0  0  0  0  0  0  0  0  0  0  0
    2.5012   -0.6200    0.0000 N   0  0  0  0  0  0  0  0  0  0  0  0
   -2.5010   -0.2023    0.0000 C   0  0  0  0  0  0  0  0  0  0  0  0
   -3.2156    0.2101    0.0000 C   0  0  0  0  0  0  0  0  0  0  0  0
   -3.9301   -0.2023    0.0000 C   0  0  0  0  0  0  0  0  0  0  0  0
   -1.7864    0.2101    0.0000 C   0  0  0  0  0  0  0  0  0  0  0  0
  2  1  2  0
  3  1  1  0
  4  2  1  0
  5  3  2  0
  6  4  2  0
  6  5  1  0
  7  2  1  0
  8  7  1  0
 11  5  1  0
 12 11  1  0
 13 12  1  0
 14 13  1  0
 15 14  1  0
 13 16  1  0
 16 17  1  0
 13 18  1  0
 20 19  1  0
  9  8  1  0
 21 20  1  0
 10 21  1  0
 19 22  1  0
 10  9  1  0
M  END
>  <DATABASE_ID>  (1) 
DB08868

>  <DATABASE_NAME>  (1) 
drugbank

>  <SMILES>  (1) 
CCCCCCCCC1=CC=C(CCC(N)(CO)CO)C=C1

>  <INCHI_IDENTIFIER>  (1) 
InChI=1S/C19H33NO2/c1-2-3-4-5-6-7-8-17-9-11-18(12-10-17)13-14-19(20,15-21)16-22/h9-12,21-22H,2-8,13-16,20H2,1H3

>  <INCHI_KEY>  (1) 
KKGQTZUTZRNORY-UHFFFAOYSA-N

>  <FORMULA>  (1) 
C19H33NO2

>  <MOLECULAR_WEIGHT>  (1) 
307.4708

>  <EXACT_MASS>  (1) 
307.251129305

>  <JCHEM_ACCEPTOR_COUNT>  (1) 
3

>  <JCHEM_ATOM_COUNT>  (1) 
55

>  <JCHEM_AVERAGE_NEUTRAL_MICROSPECIES_CHARGE>  (1) 
1.000720867837114

>  <JCHEM_AVERAGE_POLARIZABILITY>  (1) 
38.81296151292172

>  <JCHEM_BIOAVAILABILITY>  (1) 
1

>  <JCHEM_DONOR_COUNT>  (1) 
3

>  <JCHEM_FORMAL_CHARGE>  (1) 
0

>  <JCHEM_GHOSE_FILTER>  (1) 
1

>  <JCHEM_IUPAC>  (1) 
2-amino-2-[2-(4-octylphenyl)ethyl]propane-1,3-diol

>  <ALOGPS_LOGP>  (1) 
4.00

>  <JCHEM_LOGP>  (1) 
4.060977925999999

>  <ALOGPS_LOGS>  (1) 
-4.65

>  <JCHEM_MDDR_LIKE_RULE>  (1) 
0

>  <JCHEM_NEUTRAL_CHARGE>  (1) 
1

>  <JCHEM_NUMBER_OF_RINGS>  (1) 
1

>  <JCHEM_PHYSIOLOGICAL_CHARGE>  (1) 
1

>  <JCHEM_PKA>  (1) 
15.109766255181377

>  <JCHEM_PKA_STRONGEST_ACIDIC>  (1) 
14.41136347343388

>  <JCHEM_PKA_STRONGEST_BASIC>  (1) 
9.376716884398872

>  <JCHEM_POLAR_SURFACE_AREA>  (1) 
66.48

>  <JCHEM_REFRACTIVITY>  (1) 
93.28000000000002

>  <JCHEM_ROTATABLE_BOND_COUNT>  (1) 
12

>  <JCHEM_RULE_OF_FIVE>  (1) 
1

>  <ALOGPS_SOLUBILITY>  (1) 
6.90e-03 g/l

>  <JCHEM_TRADITIONAL_IUPAC>  (1) 
fingolimod

>  <JCHEM_VEBER_RULE>  (1) 
0

>  <DRUGBANK_ID>  (1) 
DB08868

>  <DRUG_GROUPS>  (1) 
approved; investigational

>  <GENERIC_NAME>  (1) 
Fingolimod

>  <SYNONYMS>  (1) 
Fingolimod; Fingolimodum

>  <PRODUCTS>  (1) 
Ach-fingolimod; Apo-fingolimod; Asn-fingolimod; Fingolimod; Fingolimod Accord; Fingolimod Hydrochloride; Fingolimod Mylan; Gilenya; Jamp Fingolimod; Mar-fingolimod; Mylan-fingolimod; PMS-fingolimod; Sandoz Fingolimod; Taro-fingolimod; Tascenso ODT; Teva-fingolimod

>  <INTERNATIONAL_BRANDS>  (1) 
Gilenia

>  <SALTS>  (1) 
Fingolimod hydrochloride; Fingolimod lauryl sulfate

$$$$
