
     RDKit          2D

 39 38  0  0  0  0  0  0  0  0999 V2000
   -0.9937    0.9707    0.0000 C   0  0  0  0  0  0  0  0  0  0  0  0
    1.5187   -1.6915    0.0000 C   0  0  0  0  0  0  0  0  0  0  0  0
    2.6187    1.7000    0.0000 C   0  0  0  0  0  0  0  0  0  0  0  0
   -0.4062    1.5500    0.0000 N   0  0  0  0  0  0  0  0  0  0  0  0
    0.6937   -1.6915    0.0000 N   0  0  0  0  0  0  0  0  0  0  0  0
    3.0311    0.9833    0.0000 N   0  0  0  0  0  0  0  0  0  0  0  0
   -1.9979   -0.3249    0.0000 C   0  0  0  0  0  0  0  0  0  0  0  0
    3.1682   -1.8713    0.0000 C   0  0  0  0  0  0  0  0  0  0  0  0
    0.2770   -0.9792    0.0000 O   0  0  0  0  0  0  0  0  0  0  0  0
    2.6187    0.2707    0.0000 O   0  0  0  0  0  0  0  0  0  0  0  0
    0.4187    1.5458    0.0000 O   0  0  0  0  0  0  0  0  0  0  0  0
   -0.5854    0.2583    0.0000 O   0  0  0  0  0  0  0  0  0  0  0  0
    1.9270   -0.9792    0.0000 O   0  0  0  0  0  0  0  0  0  0  0  0
    1.7937    1.7000    0.0000 O   0  0  0  0  0  0  0  0  0  0  0  0
    1.9270   -2.4042    0.0000 C   0  0  0  0  0  0  0  0  0  0  0  0
   -1.8187    0.9707    0.0000 C   0  0  0  0  0  0  0  0  0  0  0  0
   -2.5854   -0.9042    0.0000 N   0  0  0  0  0  0  0  0  0  0  0  0
    3.8687   -2.1042    0.0000 N   0  0  0  0  0  0  0  0  0  0  0  0
   -2.4062    0.3875    0.0000 C   0  0  0  0  0  0  0  0  0  0  0  0
    2.7520   -2.4042    0.0000 C   0  0  0  0  0  0  0  0  0  0  0  0
   -4.5812    1.7375    0.0000 N   0  0  0  0  0  0  0  0  0  0  0  0
    3.0311    2.4125    0.0000 C   0  0  0  0  0  0  0  0  0  0  0  0
   -0.9937    2.1375    0.0000 C   0  0  0  0  0  0  0  0  0  0  0  0
    3.8561    0.9833    0.0000 C   0  0  0  0  0  0  0  0  0  0  0  0
    0.2812   -2.4125    0.0000 C   0  0  0  0  0  0  0  0  0  0  0  0
    4.5812   -1.6875    0.0000 C   0  0  0  0  0  0  0  0  0  0  0  0
   -2.3729   -1.7042    0.0000 C   0  0  0  0  0  0  0  0  0  0  0  0
   -3.8604    2.1458    0.0000 C   0  0  0  0  0  0  0  0  0  0  0  0
    4.2687    0.2707    0.0000 C   0  0  0  0  0  0  0  0  0  0  0  0
   -0.5437   -2.4125    0.0000 C   0  0  0  0  0  0  0  0  0  0  0  0
   -1.7104    1.7334    0.0000 C   0  0  0  0  0  0  0  0  0  0  0  0
   -1.6604   -2.1167    0.0000 C   0  0  0  0  0  0  0  0  0  0  0  0
    4.5812   -0.8625    0.0000 C   0  0  0  0  0  0  0  0  0  0  0  0
   -3.1437    1.7334    0.0000 C   0  0  0  0  0  0  0  0  0  0  0  0
   -0.9480   -1.7000    0.0000 C   0  0  0  0  0  0  0  0  0  0  0  0
   -2.4312    2.1458    0.0000 C   0  0  0  0  0  0  0  0  0  0  0  0
    3.8645   -0.4499    0.0000 C   0  0  0  0  0  0  0  0  0  0  0  0
   -1.2010   -0.5384    0.0000 O   0  0  0  0  0  0  0  0  0  0  0  0
    2.9547   -1.0744    0.0000 O   0  0  0  0  0  0  0  0  0  0  0  0
  2  5  1  0
  3  6  1  0
  4  1  1  0
  5 25  1  0
  6 24  1  0
  7 19  1  0
  8 20  1  0
  9  5  1  0
 10  6  1  0
 11  4  1  0
 12  1  2  0
 13  2  2  0
 14  3  2  0
 15  2  1  0
 16  1  1  0
 17  7  1  0
 18  8  1  0
 19 16  1  0
 20 15  1  0
 21 28  1  0
 22  3  1  0
 23  4  1  0
 24 29  1  0
 25 30  1  0
 26 18  1  0
 27 17  1  0
 28 34  1  0
 29 37  1  0
 30 35  1  0
 31 23  1  0
 32 27  1  0
 33 26  1  0
 34 36  1  0
 35 32  1  0
 36 31  1  0
 37 33  1  0
  7 38  2  0
  8 39  2  0
M  END
>  <DATABASE_ID>  (1) 
DB00746

>  <DATABASE_NAME>  (1) 
drugbank

>  <SMILES>  (1) 
CC(=O)N(O)CCCCCNC(=O)CCC(=O)N(O)CCCCCNC(=O)CCC(=O)N(O)CCCCCN

>  <INCHI_IDENTIFIER>  (1) 
InChI=1S/C25H48N6O8/c1-21(32)29(37)18-9-3-6-16-27-22(33)12-14-25(36)31(39)20-10-4-7-17-28-23(34)11-13-24(35)30(38)19-8-2-5-15-26/h37-39H,2-20,26H2,1H3,(H,27,33)(H,28,34)

>  <INCHI_KEY>  (1) 
UBQYURCVBFRUQT-UHFFFAOYSA-N

>  <FORMULA>  (1) 
C25H48N6O8

>  <MOLECULAR_WEIGHT>  (1) 
560.684

>  <EXACT_MASS>  (1) 
560.353362542

>  <JCHEM_ACCEPTOR_COUNT>  (1) 
9

>  <JCHEM_ATOM_COUNT>  (1) 
87

>  <JCHEM_AVERAGE_POLARIZABILITY>  (1) 
62.417465382553964

>  <JCHEM_BIOAVAILABILITY>  (1) 
0

>  <JCHEM_DONOR_COUNT>  (1) 
6

>  <JCHEM_FORMAL_CHARGE>  (1) 
0

>  <JCHEM_GHOSE_FILTER>  (1) 
0

>  <JCHEM_IUPAC>  (1) 
N-(5-aminopentyl)-N-hydroxy-N'-[5-(N-hydroxy-3-{[5-(N-hydroxyacetamido)pentyl]carbamoyl}propanamido)pentyl]butanediamide

>  <ALOGPS_LOGP>  (1) 
0.93

>  <JCHEM_LOGP>  (1) 
-3.3651618251632973

>  <ALOGPS_LOGS>  (1) 
-3.75

>  <JCHEM_MDDR_LIKE_RULE>  (1) 
0

>  <JCHEM_NUMBER_OF_RINGS>  (1) 
0

>  <JCHEM_PHYSIOLOGICAL_CHARGE>  (1) 
1

>  <JCHEM_PKA>  (1) 
8.3905884536604

>  <JCHEM_PKA_STRONGEST_ACIDIC>  (1) 
7.915494125724042

>  <JCHEM_PKA_STRONGEST_BASIC>  (1) 
10.225199409088203

>  <JCHEM_POLAR_SURFACE_AREA>  (1) 
205.84000000000003

>  <JCHEM_REFRACTIVITY>  (1) 
144.9508

>  <JCHEM_ROTATABLE_BOND_COUNT>  (1) 
23

>  <JCHEM_RULE_OF_FIVE>  (1) 
0

>  <ALOGPS_SOLUBILITY>  (1) 
9.90e-02 g/l

>  <JCHEM_TRADITIONAL_IUPAC>  (1) 
deferoxamine

>  <JCHEM_VEBER_RULE>  (1) 
0

>  <DRUGBANK_ID>  (1) 
DB00746

>  <SECONDARY_ACCESSION_NUMBERS>  (1) 
APRD00904

>  <DRUG_GROUPS>  (1) 
approved; investigational

>  <GENERIC_NAME>  (1) 
Deferoxamine

>  <SYNONYMS>  (1) 
Deferoxamin; Deferoxamina; Déferoxamine; Deferoxamine; Deferoxaminum; Deferrioxamine; Deferrioxamine B; Desferrioxamine; DFO; DFOA; DFOM

>  <PRODUCTS>  (1) 
Deferoxamine; Deferoxamine Mesylate; Deferoxamine Mesylate for Injection; Deferoxamine mesylate; Desferal; Desferal 2g; Desferal 500mg; PMS-deferoxamine

>  <INTERNATIONAL_BRANDS>  (1) 
Desferin

>  <SALTS>  (1) 
Deferoxamine hydrochloride; Deferoxamine mesylate

$$$$
