
     RDKit          2D

 15 16  0  0  0  0  0  0  0  0999 V2000
    0.0000    0.0000    0.0000 C   0  0  0  0  0  0  0  0  0  0  0  0
    0.0000    0.8251    0.0000 N   0  0  0  0  0  0  0  0  0  0  0  0
    0.7145   -0.4125    0.0000 C   0  0  0  0  0  0  0  0  0  0  0  0
   -0.7145   -0.4125    0.0000 N   0  0  0  0  0  0  0  0  0  0  0  0
   -0.7145    1.2375    0.0000 C   0  0  0  0  0  0  0  0  0  0  0  0
    0.7145    1.2375    0.0000 C   0  0  0  0  0  0  0  0  0  0  0  0
    0.7145   -1.2375    0.0000 C   0  0  0  0  0  0  0  0  0  0  0  0
   -0.7145   -1.2375    0.0000 C   0  0  0  0  0  0  0  0  0  0  0  0
   -0.7145    2.0627    0.0000 C   0  0  0  0  0  0  0  0  0  0  0  0
    0.7145    2.0627    0.0000 C   0  0  0  0  0  0  0  0  0  0  0  0
    0.0000   -1.6501    0.0000 N   0  0  0  0  0  0  0  0  0  0  0  0
    1.4290   -1.6501    0.0000 N   0  0  0  0  0  0  0  0  0  0  0  0
   -1.4290   -1.6501    0.0000 N   0  0  0  0  0  0  0  0  0  0  0  0
    0.0000    2.4751    0.0000 C   0  0  0  0  0  0  0  0  0  0  0  0
    0.0000   -2.4752    0.0000 O   0  0  0  0  0  0  0  0  0  0  0  0
  1  2  1  0
  1  3  2  0
  1  4  1  0
  2  5  1  0
  2  6  1  0
  3  7  1  0
  4  8  2  0
  5  9  1  0
  6 10  1  0
  7 11  2  0
  7 12  1  0
  8 13  1  0
  9 14  1  0
  8 11  1  0
 10 14  1  0
 11 15  1  0
M  CHG  2  11   1  15  -1
M  END
>  <DATABASE_ID>  (1) 
DB00350

>  <DATABASE_NAME>  (1) 
drugbank

>  <SMILES>  (1) 
NC1=CC(=NC(N)=[N+]1[O-])N1CCCCC1

>  <INCHI_IDENTIFIER>  (1) 
InChI=1S/C9H15N5O/c10-7-6-8(12-9(11)14(7)15)13-4-2-1-3-5-13/h6H,1-5,10H2,(H2,11,12)

>  <INCHI_KEY>  (1) 
ZFMITUMMTDLWHR-UHFFFAOYSA-N

>  <FORMULA>  (1) 
C9H15N5O

>  <MOLECULAR_WEIGHT>  (1) 
209.2483

>  <EXACT_MASS>  (1) 
209.127660127

>  <JCHEM_ACCEPTOR_COUNT>  (1) 
5

>  <JCHEM_ATOM_COUNT>  (1) 
30

>  <JCHEM_AVERAGE_POLARIZABILITY>  (1) 
21.970499783264046

>  <JCHEM_BIOAVAILABILITY>  (1) 
1

>  <JCHEM_DONOR_COUNT>  (1) 
2

>  <JCHEM_FORMAL_CHARGE>  (1) 
0

>  <JCHEM_GHOSE_FILTER>  (1) 
1

>  <JCHEM_IUPAC>  (1) 
2,6-diamino-4-(piperidin-1-yl)pyrimidin-1-ium-1-olate

>  <ALOGPS_LOGP>  (1) 
1.24

>  <JCHEM_LOGP>  (1) 
0.0007928796666662741

>  <ALOGPS_LOGS>  (1) 
-1.02

>  <JCHEM_MDDR_LIKE_RULE>  (1) 
0

>  <JCHEM_NUMBER_OF_RINGS>  (1) 
2

>  <JCHEM_PHYSIOLOGICAL_CHARGE>  (1) 
0

>  <JCHEM_PKA_STRONGEST_ACIDIC>  (1) 
17.62017270789849

>  <JCHEM_PKA_STRONGEST_BASIC>  (1) 
1.6924657695460776

>  <JCHEM_POLAR_SURFACE_AREA>  (1) 
95.11

>  <JCHEM_REFRACTIVITY>  (1) 
60.4209

>  <JCHEM_ROTATABLE_BOND_COUNT>  (1) 
1

>  <JCHEM_RULE_OF_FIVE>  (1) 
1

>  <ALOGPS_SOLUBILITY>  (1) 
1.99e+01 g/l

>  <JCHEM_TRADITIONAL_IUPAC>  (1) 
3-carbamoyl-1-[(2R,3R,4S,5R)-5-[({[(2R,3S,4R,5R)-3,4-dihydroxy-5-{imidazo[2,1-f]purin-3-yl}oxolan-2-yl]methoxy(hydroxy)phosphoryl phosphonato}oxy)methyl]-3,4-dihydroxyoxolan-2-yl]-1lambda5-pyridin-1-ylium

>  <JCHEM_VEBER_RULE>  (1) 
0

>  <DRUGBANK_ID>  (1) 
DB00350

>  <SECONDARY_ACCESSION_NUMBERS>  (1) 
APRD00086; DB08225

>  <DRUG_GROUPS>  (1) 
approved; investigational

>  <GENERIC_NAME>  (1) 
Minoxidil

>  <SYNONYMS>  (1) 
2,4-Diamino-6-piperidinopyrimidine 3-oxide; 6-Piperidin-1-ylpyrimidine-2,4-diamine 3-oxide; Minossidile; Minoxidil; Minoxidilum

>  <PRODUCTS>  (1) 
2% Minoxidil Hair regrowth serum; 2% Minoxidil hair growth oil; 3RX Minoxidil HAIR REGROWTH TREATMENT FOR MEN; 5% MinoxidiL Hair Growth; 5% Minoxidil; 5% Minoxidil Beard Growth Serum; 5% Minoxidil Foam; 5% Minoxidil Hair Growth Serum; 5% Minoxidil Hair Regrowth Treatment; 5% Minoxidil Hair growth Serum; 5% Minoxidil Hair growth foam; 5% Minoxidil Serum; 5% Minoxidil Spray.; 5% Minoxidil Topical Solution; 5% Minoxidil Topical serum; 5% Minoxidil hair growth oil; 5%Minoxidil Hair Growth Serum; AIJIEYO 5% MinoxidiL Hair Growth Solution; ASDTOTIO 5% minoxidil; Apo-gain Liq 20mg/ml; Avitapure 5% Minoxidil Beard Growth Oil Spray.; Axelofein; Azelomax Forte; BOSLEY Man 5 Minoxidil Topical Solution; BOSLEY Minoxidil Topical Solution 2 for Women; BOSLEY Minoxidil Topical Solution 5 (for men); BOSLEY PROFESSIONAL STRENGTH HAIR REGROWTH TREATMENT Regular Strength For Men; BOSLEY PROFESSIONAL STRENGTH HAIR REGROWTH TREATMENT Regular Strength For Women; BOSLEY Woman 2 Minoxidil Topical Solution; BUNEE Hair Growth Serum; Bakumokon 5% Minoxidil; Bakumokon 7% Minoxidil Sulfate; Baoveri Hair growth serum; Barbiux balsamic tonic 5%; Basic Care Hair Regrowth; Basic Care Hair Regrowth Treatment; Beaueli 5% Minoxidil hair growth oil; Berkley and Jensen Minoxidil; Betamethasone Dipropionate 0.05% / Minoxidil 5%; Betamethasone Dipropionate 0.05% / Minoxidil 5% / Niacinamide 2% / Pentoxifylline 0.5%; Betamethasone Diproprionate 0.05% / Minoxidil 7%; Bosley MD Extra Strength for Men; Bosley MD Regular Strength for Women; Capillus Hair Regrowth Treatment; CareOne Hair Regrowth Treatment Extra Strength; Careone Hair Regrowth Treatment; Cerafill Retaliate; Cerafill Retaliate Extra Strength For Men; Chrmplx Hair Regrowth Treatment; Club Roots - Topical Solution Hair Regrowth Treatment; Colorsmith Hair Regrowth Treatment Mens Minoxidil Topical Solution Extra Strength; Core Values Minoxidil; Cream; DAVV Minoxidil Topical Solution Mens Hair Regrowth Treatment; DIZOP 5% Minoxidil Topical Gel; DS Labs Spectral UHP Men s Extra Strength Hair Regrowth Treatment; Daniel Alain Extra Strength Hair Regrowth Treatment for Men; Daniel Alain Hair Regrowth Treatment for Women; Davv 2%Minoxidil Topical Solution Womens Hair Regrowth Treatment; Daylogic For Men; Dexamethasone Sodium Phosphate 0.1% / Finasteride 0.1% / Minoxidil 5%; Dexamethasone Sodium Phosphate 0.1% / Finasteride 0.1% / Minoxidil 5% / Tretinoin 0.025%; Dizop Minoxidil Topical Gel; Dr. Bosley Minoxidil (For Men) Hair Regrowth Treatment; EXDEPLOY 5% Minoxidil Topical Gel; EXT Extreme Hair Therapy; EXT Hair Regrowth Treatment for Men 2%; EXT Hair Regrowth Treatment for Men 5%; EXT Hair Regrowth Treatment for Women; Elevate 2% Minoxidil Foam; Elevate 2% Minoxidil Hair Liquid; Elevate 2% Minoxidil Liquid; Elevate 2% minoxidil hair liquid; Elevate 5% Minoxidil Foam; Elevate 5% Minoxidil Hair Liquid; Elevate 5% Minoxidil Liquid; Elevate 5% minoxidil hair liquid; Elevate 5% minoxidil liquid; Elevate Beard Growth Serum; Elevate Hair Growth Serum; Elevate Hair Regrowth Treatment 5; Elevate Hair Regrowth Treatment 5 Minoxidil Solution; Elevate Minoxidil Foam; Elevate Minoxidil liquid; Equaline Hair Regrowth Treatment For Women; Equaline Hair Regrowth Treatment for Men; Equaline Hair Regrowth Treatment for Women; Equaline hair regrowth treatment for men; Equate Hair Regrowth Treatment; Equate Hair Regrowth Treatment for Men; Equate Hair Regrowth Treatment for Women; Etaderm Mens Minoxidil Hair Regrowth Treatment Extra Strength; Eternal Minoxidil; FOLLIXIL Hair Regrowth Treatment; FOLLIXIL Hair and Beard Growth-Foam; FOLLIXIL Hair and Beard Growth-Lotion; Fete Health Hair Regrowth Treatment for Women; Fidyn 5% Minoxidil HAIR GROWTH SERUM For Men; Finally Hair Minoxidil 5% Hair Growth Foam; Finally Hair Minoxidil 5% Hair Growth Serum; Finasteride 0.1% / Minoxidil 5%; Finasteride 0.1% / Minoxidil 7%; Finasteride 0.1% / Minoxidil 7% / Tretinoin 0.025%; FluMisch 5% Minoxidil; FluMisch Batana Oil for Hair Growth; Fluocinolone Acetonide 0.01% / Minoxidil 5% / Tretinoin 0.025%; Fluocinolone Acetonide 0.01% / Minoxidil 7% / Progesterone 0.1%; Follicle Follixil 5% Minoxidil Hair Regrowth-Lotion; Follinique; GETTIK Hair Regrowth Treatment; GIILAVY Hair Regrowth Treatment; GIOTTO Minoxidil Hair Growth Serum; GIOTTO Minoxidil Hair Growth Spray.; GOOD GUY Mens Hair Regrowth Treatment; GROFULLY Mens Extra Strength Hair Regrowth Treatment; GROFULLY Womens Hair Regrowth Treatment; GROWELL Mens Hair Regrowth Treatment 5 Minoxidil; GROWELL Womens Hair Regrowth Treatment 2 Minoxidil; Gainextra Hair Regrowth Treatment for Men 5%; Gemachlich ZuHause Hair Growth Foam (Men); Gemachlich ZuHause Hair Growth Foam (Women); Gen-minoxidil Liq 2%; Glemme Beard Growth Oil; Good Neighbor Pharmacy Hair Regrowth Treatment for Men; Good Sense Hair Regrowth Treatment; Good Sense Hair Regrowth Treatment for Men; Good Sense Hair Regrowth Treatment for Women; Good Sense hair regrowth treatment for women; Gromedi 5x; Grow Girl; HERYTEE 5% minoxidil hair care essential oil; HERYTEE BIOTIN Minoxidi 5% Topical Serum; Hair Growth Serum; Hair Growth Serum Roll-ON; Hair Illusion 5% Minoxidil Foam; Hair Labs Mens Extra Strength 5 Minoxidil; Hair Regen - Hair Regrowth Treatment; Hair Regen Hair Regrowth Treatment; Hair Regrow; Hair Regrowth; Hair Regrowth 5% Minoxidil; Hair Regrowth Foam; Hair Regrowth Formula; Hair Regrowth Ireatment; Hair Regrowth Treatment; Hair Regrowth Treatment Extra Strength for Men; Hair Regrowth Treatment for Men; Hair Regrowth Treatment for Men Extra Strength; Hair Regrowth Treatment for Women; Hair Serum; Hair and Beard Growth Serum; Hair essential oil; Hair regrowth treatment; Hair regrowth treatment for men; Hair-Regen Hair Growth Treatment; Hair-Regen Hair Growth Treatment Derma Roller Included; Hairfx Hair Growth Foam; Hairgro; Happy Head Mens Extra Strength Minoxidil; Happy Head Womens Hair Regrowth Treatment; Harmon Face Values Minoxidil; Harmon Face Values Minoxidil Mens; Head and Shoulders Scalp X Minoxidil Hair Regrowth Treatment for Men; Head and Shoulders Scalp X Minoxidil Hair Regrowth Treatment for Women; Hers Hair Regrowth Treatment; Hers Minoxidil; Hims; Hims Hair Regrowth Treatment; Hims Minoxidil; INTELLIGENT Mens Minoxidil Extra Strength 5 Minoxidil; Image Essentials Hair Regrowth Treatment; Image Essentials Hair Regrowth Treatment For Men; Jamp Minoxidil Solution; Jardient 5% Minoxidil Hair Growth Serum; Just for Men Minoxidil; KERANIQUE For Women Hair Regrowth Treatment; KERANIQUE Hair Regrowth Treatment For Women; Keeps; Keeps Minoxidil Topical; Keeps Minoxidil Topical Solution, 5%; Keranique 2% Hair Regrowth Treatment for Women; Keranique Hair Regrowth Treatment for Women; Kerastase Densifique; Kirkland Signature Minoxidil; LE PHOQUA Hair Regrowth Serum BIOTIN 5% MINOXIDIL; LamFun Hair Regrowth Treatment; Leader Hair Regrowth Treatment; Leader Minoxidil; Leader minoxidil; Lexi White Beauty 5% Minoxidil Serum; Lexi White Beauty Hair Regrowth 5% Minoxidil Foam; Lexi White Beauty Hair Regrowth 5% MinoxidilSpray; Lilivera 5% Minoxidil Hair Serum; Liquid; Loesch Hair Regrowth Formula Unscented Topical Solution Extra-Strength for Men; Loesch Hair Regrowth Formula Unscented Topical Solution Regular-Strength for Men and Women; Loniten; Loniten 10mg; Loniten 2.5mg; MDhair Extra Strength hair regrowth treatment for Men; MDhair hair regrowth treatment for women; MENS RAPID REINVENT 5 Minoxidil Solution; MENS alopexy; MINOXIDIL 7% / NIACINAMIDE 4% s; Members Mark Hair Regrowth Treatment; Members Mark Minoxidil; Men's Gln-minoxidil; Men's Minoxidil Foam; Men's Rogaine; Men's Rogaine Foam 5%; Mens ComBack HAIR REGROWTH TREATMENT EXTRA STRENGTH UNSCENTED; Mens Hair Regrowth Treatment extra strength; Mens Intelligent Hair Regrowth Treatment; Mens Kirkland Extra Strength; Mens Minoxidil Hair Growth System; Mens Minoxidil Hair Regrowth; Mens Rogaine Extra Strength; Mens Rogaine Extra Strength Unscented; Mens SPECTRAL UHP EXTRA STRENGTH HAIR REGROWTH TREATMENT; Mens pura dor Hair Loss MD; Mens rogaine Minoxidil - Unscented Formula; Mens rogaine Unscented Formula; Michiru hair regrowth treatment for women; Minodil hair growth solution; Minox; Minoxidil; Minoxidil (For Men); Minoxidil (For Women); Minoxidil (for Men); Minoxidil (for Women); Minoxidil 5 Percent (For Women); Minoxidil 5% (For Men); Minoxidil 5% (for Men); Minoxidil 5% (for Women); Minoxidil 5% / Progesterone 0.1% / Tretinoin 0.025%; Minoxidil 7% / Progesterone 0.1%; Minoxidil 7% / Progesterone 0.1% / Tretinoin 0.025%; Minoxidil 7% / Tretinoin 0.025%; Minoxidil Extra Strength for Men; Minoxidil Foam; Minoxidil For Men; Minoxidil For Men extra strength; Minoxidil For Women; Minoxidil Hair Growth Foam; Minoxidil Hair Growth Serum; Minoxidil Hair Growth Sprays; Minoxidil Mens; Minoxidil Regular Strength for Men; Minoxidil Solution; Minoxidil Topical; Minoxidil Topical Solution 2%; Minoxidil Topical Solution, 5%; Minoxidil for Men; Minoxidil for Women; Minoxidil regular strength; Minoxigaine; Minoxigaine Topical Solution - 2%; Myhair Hair Regrowth Treatment; Navi Hair Solutions Mens Hair Regrowth Treatment; Navi Hair Solutions Womens Hair Regrowth Treatment; Nexxus Hair Regrowth Treatment; Nincrane 5% Minoxidil for Men; Nioxin Hair Regrowth Kit For Women; Nioxin Hair Regrowth Kit for Men; Nioxin Hair Regrowth Treatment Extra Strength for Men; Nioxin Hair Regrowth Treatment For Women; Nioxin Hair Regrowth Treatment for Men; Nioxin Hair Regrowth Treatment for Women; Nutrastim Hair Regrowth Treatment For Women; Nutrastim Hair Regrowth Treatment Unscented For Men; OLISMO 5% Minoxidil Hair Growth Kit; OLISMO 5% Minoxidil Hair Growth Serum; OpusMeds Extra Strength Minoxidil; PACINOS 5 Minoxidil Topical Solution; Pabedo 5% Minoxidil Hair Growth serum; Pantene Pro-V Expert Collection Hair Regrowth Treatment for Women; Peak Body Mens Hair Regrowth Treatment; Polaris Research NR-02 Hair Regrowth; ProBliva Mens Extra Strength Minoxidil; Profolix Minoxidil Hair Growth Serum; Provillus; QIDILA 5% Minoxidil foam; Qilib Hair Regrowth Treatment for Men; Qilib Hair Regrowth Treatment for Women; RIZE Hair Regrowth Treatment for Men 5%; Raphe Pharmaceutique; Re-Gro; Regen; Regenivade Hair Growth Foam; Regenpure Precision; Regoxidine; Regoxidine (For Men); Regoxidine (For Women); Regoxidine (for Men); Regoxidine (for Women); RegrowthX Hair Regrowth Treatment Minoxidil; Remixdil Extra Strength hair regrowth treatment for Men; Remixdil Hair Regrowth Treatment for Women; Renewal for Men; Rootly Extra Strength Hair Regrowth Treatment for Men; Rootly Hair Regrowth Treatment for Women; Roots Professional - Topical Solution Hair Regrowth Treatment; Rory for Women Hair Regrowth Treatment; Ruigoo Minoxidil Topical Gel; SANNUO 5% Minoxidil Hair Growth Treatment; SUAI 5% MinoxidiL Hair Growth Solution; SUAVECITO 5% Minoxidil Solution; SUNHEAL 5% Minoxidil Hair Growth Foam; SUNHEAL 5% Minoxidil Hair Growth Kit; Salubrito Hair Growth Treatment; Santo Remedio Mens Hair Regrowth Treatment Minoxidil Topical Solution Extra Strength Unscented; Santo Remedio Womens Hair Regrowth Treatment Minoxidil Unscented; ScalpMED for Men - VITADIL-5A Hair Regrowth Treatment; ScalpMED for Women - Vitadil-2A Hair Regrowth Treatment 2%; Shapiro MD 5% Minoxidil Hair Regrowth Treatment for Men; Shapriero 2% Hair Regrowth Treatment for Women; Shea Moisture Hair Regrowth Treatment for Women; Signature Care Hair Regrowth Treatment; Signature Care Hair Regrowth Treatment for Women; Signature Care Hair Regrowth Treatment for men; Simply Right Minoxidil; Simply Right Minoxidil Extra Strength; Smart Sense Hair Regrowth; Smart Sense Hair Regrowth Treatment; Solution; Soti Hair Growth Serum; Stafenit Hair Regrowth Treatment Topical Minoxidil; THICK HEAD Extra Strength for Men 5 Minoxidil Topical; Thappink Hair Growth Serum; The Root Of Goodness Healthy Growth Hair Regrowth System For Women 3 Step System; Tomum Hair Growth Treatment For Men Minoxidil Unscented; Toppik Mens Hair Regrowth Treatment Extra Strength; Toppik Womens Hair Regrowth Treatment; Up and Up Hair Regrowth Treatment for Men; Up and Up Hair Regrowth Treatment for Women; Up and Up Minoxidil; Up and Up minoxidil; VIOFAIRY 5% Minoxidil Hair Growth oil; VIOFAIRY 5% Minoxidil Hair Growth serum; Vanarex Hair Regrowth Treatment; Vitadil-2A; Vitadil-5A; WOMENS alopexy; Women's Gln-minoxidil; Women's Minoxidil Foam; Women's Rogaine Foam 5%; Womens MinoGrow Hair Regrowth Treatment Minoxidil; Womens Minoxidil Hair Growth System; Womens Minoxidil Hair Regrowth; Womens Rogaine - Unscented; Womens Rogaine Unscented; Wulumer 5% Minoxidil Hair Rrowth Oil; Yoocoi Minoxidil HAIR REGROWTH SERUM; Yoocoi Minoxidil HAIR REGROWTH TREATMENT; Yumhon 6% Minoxidil; ZOTOS PROFESSIONAL Nutri for Women 2% Minoxidil Topical Solution; bourn Hair Regrowth Treatment for Men; eSalon Hair Regrowth Treatment Womens Minoxidil; iBeaLee 5% MinoxidiL Hair Growth Solution; kirkland signature Minoxidil; sefudun 5% Minoxidil Hair Growth serum; uElixir Hair Growth Serum

>  <INTERNATIONAL_BRANDS>  (1) 
Alostil; Apo-Gain; Avogain; Lipogaine; Lonolox; Minodyl; Minoximen; Mintop; Normoxidil; Regaine; Rogaine; Theroxidil; Tricoxidil; Vanarex

>  <SALTS>  (1) 
Minoxidil sulfate

$$$$
