
     RDKit          2D

  6  5  0  0  0  0  0  0  0  0999 V2000
   -0.3573    0.2062    0.0000 C   0  0  0  0  0  0  0  0  0  0  0  0
   -0.3573   -0.6188    0.0000 O   0  0  0  0  0  0  0  0  0  0  0  0
    0.3572    0.6188    0.0000 C   0  0  0  0  0  0  0  0  0  0  0  0
   -1.0717    0.6188    0.0000 C   0  0  0  0  0  0  0  0  0  0  0  0
    1.0717    0.2062    0.0000 C   0  0  0  0  0  0  0  0  0  0  0  0
    1.0717   -0.6187    0.0000 O   0  0  0  0  0  0  0  0  0  0  0  0
  1  2  1  0
  1  3  1  0
  1  4  1  1
  3  5  1  0
  5  6  1  0
M  END
>  <DATABASE_ID>  (1) 
DB02202

>  <DATABASE_NAME>  (1) 
drugbank

>  <SMILES>  (1) 
C[C@H](O)CCO

>  <INCHI_IDENTIFIER>  (1) 
InChI=1S/C4H10O2/c1-4(6)2-3-5/h4-6H,2-3H2,1H3/t4-/m0/s1

>  <INCHI_KEY>  (1) 
PUPZLCDOIYMWBV-BYPYZUCNSA-N

>  <FORMULA>  (1) 
C4H10O2

>  <MOLECULAR_WEIGHT>  (1) 
90.121

>  <EXACT_MASS>  (1) 
90.068079564

>  <JCHEM_ACCEPTOR_COUNT>  (1) 
2

>  <JCHEM_ATOM_COUNT>  (1) 
16

>  <JCHEM_AVERAGE_POLARIZABILITY>  (1) 
9.967830311099732

>  <JCHEM_BIOAVAILABILITY>  (1) 
1

>  <JCHEM_DONOR_COUNT>  (1) 
2

>  <JCHEM_FORMAL_CHARGE>  (1) 
0

>  <JCHEM_GHOSE_FILTER>  (1) 
0

>  <JCHEM_IUPAC>  (1) 
(3S)-butane-1,3-diol

>  <ALOGPS_LOGP>  (1) 
-0.59

>  <JCHEM_LOGP>  (1) 
-0.7321443170000002

>  <ALOGPS_LOGS>  (1) 
0.92

>  <JCHEM_MDDR_LIKE_RULE>  (1) 
0

>  <JCHEM_NUMBER_OF_RINGS>  (1) 
0

>  <JCHEM_PHYSIOLOGICAL_CHARGE>  (1) 
0

>  <JCHEM_PKA>  (1) 
16.16810027525158

>  <JCHEM_PKA_STRONGEST_ACIDIC>  (1) 
15.413883421143819

>  <JCHEM_PKA_STRONGEST_BASIC>  (1) 
-2.4089176560901633

>  <JCHEM_POLAR_SURFACE_AREA>  (1) 
40.46

>  <JCHEM_REFRACTIVITY>  (1) 
23.837799999999998

>  <JCHEM_ROTATABLE_BOND_COUNT>  (1) 
2

>  <JCHEM_RULE_OF_FIVE>  (1) 
1

>  <ALOGPS_SOLUBILITY>  (1) 
7.42e+02 g/l

>  <JCHEM_TRADITIONAL_IUPAC>  (1) 
(S)-butane-1,3-diol

>  <JCHEM_VEBER_RULE>  (1) 
0

>  <DRUGBANK_ID>  (1) 
DB02202

>  <SECONDARY_ACCESSION_NUMBERS>  (1) 
EXPT00772

>  <DRUG_GROUPS>  (1) 
approved

>  <GENERIC_NAME>  (1) 
(S)-butane-1,3-diol

>  <SYNONYMS>  (1) 
(S)-(+)-Butane-1,3-diol; (S)-butane-1,3-diol

$$$$
