
     RDKit          2D

 14 13  0  0  0  0  0  0  0  0999 V2000
    0.8250   -1.6500    0.0000 C   0  0  0  0  0  0  0  0  0  0  0  0
    0.8250   -0.8250    0.0000 C   0  0  0  0  0  0  0  0  0  0  0  0
    0.8250   -2.4750    0.0000 C   0  0  0  0  0  0  0  0  0  0  0  0
    0.8250    0.0000    0.0000 C   0  0  0  0  0  0  0  0  0  0  0  0
    1.6500   -1.6500    0.0000 F   0  0  0  0  0  0  0  0  0  0  0  0
    0.0000   -1.6500    0.0000 F   0  0  0  0  0  0  0  0  0  0  0  0
    1.6500   -0.8250    0.0000 F   0  0  0  0  0  0  0  0  0  0  0  0
    0.0000   -0.8250    0.0000 F   0  0  0  0  0  0  0  0  0  0  0  0
    0.8250   -3.3000    0.0000 F   0  0  0  0  0  0  0  0  0  0  0  0
    1.6500   -2.4750    0.0000 F   0  0  0  0  0  0  0  0  0  0  0  0
    0.0000   -2.4750    0.0000 F   0  0  0  0  0  0  0  0  0  0  0  0
    0.8250    0.8250    0.0000 F   0  0  0  0  0  0  0  0  0  0  0  0
    1.6500   -0.0000    0.0000 F   0  0  0  0  0  0  0  0  0  0  0  0
    0.0000    0.0000    0.0000 F   0  0  0  0  0  0  0  0  0  0  0  0
  2  1  1  0
  3  1  1  0
  4  2  1  0
  5  1  1  0
  6  1  1  0
  7  2  1  0
  8  2  1  0
  9  3  1  0
 10  3  1  0
 11  3  1  0
 12  4  1  0
 13  4  1  0
 14  4  1  0
M  END
>  <DATABASE_ID>  (1) 
DB12821

>  <DATABASE_NAME>  (1) 
drugbank

>  <SMILES>  (1) 
FC(F)(F)C(F)(F)C(F)(F)C(F)(F)F

>  <INCHI_IDENTIFIER>  (1) 
InChI=1S/C4F10/c5-1(6,3(9,10)11)2(7,8)4(12,13)14

>  <INCHI_KEY>  (1) 
KAVGMUDTWQVPDF-UHFFFAOYSA-N

>  <FORMULA>  (1) 
C4F10

>  <MOLECULAR_WEIGHT>  (1) 
238.028

>  <EXACT_MASS>  (1) 
237.98403163

>  <JCHEM_ACCEPTOR_COUNT>  (1) 
0

>  <JCHEM_ATOM_COUNT>  (1) 
14

>  <JCHEM_AVERAGE_POLARIZABILITY>  (1) 
9.220936665331392

>  <JCHEM_BIOAVAILABILITY>  (1) 
1

>  <JCHEM_DONOR_COUNT>  (1) 
0

>  <JCHEM_FORMAL_CHARGE>  (1) 
0

>  <JCHEM_GHOSE_FILTER>  (1) 
0

>  <JCHEM_IUPAC>  (1) 
decafluorobutane

>  <ALOGPS_LOGP>  (1) 
3.63

>  <JCHEM_LOGP>  (1) 
3.483002846

>  <ALOGPS_LOGS>  (1) 
-3.69

>  <JCHEM_MDDR_LIKE_RULE>  (1) 
0

>  <JCHEM_NUMBER_OF_RINGS>  (1) 
0

>  <JCHEM_PHYSIOLOGICAL_CHARGE>  (1) 
0

>  <JCHEM_POLAR_SURFACE_AREA>  (1) 
0.0

>  <JCHEM_REFRACTIVITY>  (1) 
22.205199999999998

>  <JCHEM_ROTATABLE_BOND_COUNT>  (1) 
3

>  <JCHEM_RULE_OF_FIVE>  (1) 
1

>  <ALOGPS_SOLUBILITY>  (1) 
4.85e-02 g/l

>  <JCHEM_TRADITIONAL_IUPAC>  (1) 
perfluorobutane

>  <JCHEM_VEBER_RULE>  (1) 
1

>  <DRUGBANK_ID>  (1) 
DB12821

>  <SECONDARY_ACCESSION_NUMBERS>  (1) 
DB05392

>  <DRUG_GROUPS>  (1) 
approved; investigational; withdrawn

>  <GENERIC_NAME>  (1) 
Perflubutane

>  <SYNONYMS>  (1) 
Decafluorobutane; Perflubutane; perflubutano; Sonazoid

$$$$
