
     RDKit          2D

  7  6  0  0  0  0  0  0  0  0999 V2000
    0.6124    0.2357    0.0000 C   0  0  0  0  0  0  0  0  0  0  0  0
   -0.1021   -0.1768    0.0000 C   0  0  0  0  0  0  0  0  0  0  0  0
   -0.8165    0.2357    0.0000 C   0  0  0  0  0  0  0  0  0  0  0  0
    1.3269   -0.1768    0.0000 O   0  0  0  0  0  0  0  0  0  0  0  0
    0.6124    1.0607    0.0000 O   0  0  0  0  0  0  0  0  0  0  0  0
   -0.1021   -1.0018    0.0000 N   0  0  0  0  0  0  0  0  0  0  0  0
   -1.5310   -0.1768    0.0000 S   0  0  0  0  0  0  0  0  0  0  0  0
  2  1  1  0
  5  1  2  0
  4  1  1  0
  3  2  1  0
  2  6  1  1
  7  3  1  0
M  END
>  <DATABASE_ID>  (1) 
DB00151

>  <DATABASE_NAME>  (1) 
drugbank

>  <SMILES>  (1) 
N[C@@H](CS)C(O)=O

>  <INCHI_IDENTIFIER>  (1) 
InChI=1S/C3H7NO2S/c4-2(1-7)3(5)6/h2,7H,1,4H2,(H,5,6)/t2-/m0/s1

>  <INCHI_KEY>  (1) 
XUJNEKJLAYXESH-REOHCLBHSA-N

>  <FORMULA>  (1) 
C3H7NO2S

>  <MOLECULAR_WEIGHT>  (1) 
121.158

>  <EXACT_MASS>  (1) 
121.019749163

>  <JCHEM_ACCEPTOR_COUNT>  (1) 
3

>  <JCHEM_ATOM_COUNT>  (1) 
14

>  <JCHEM_AVERAGE_NEUTRAL_MICROSPECIES_CHARGE>  (1) 
-0.00961289343552374

>  <JCHEM_AVERAGE_POLARIZABILITY>  (1) 
11.40532279226667

>  <JCHEM_BIOAVAILABILITY>  (1) 
1

>  <JCHEM_DONOR_COUNT>  (1) 
3

>  <JCHEM_FORMAL_CHARGE>  (1) 
0

>  <JCHEM_GHOSE_FILTER>  (1) 
0

>  <JCHEM_IUPAC>  (1) 
(2R)-2-amino-3-sulfanylpropanoic acid

>  <ALOGPS_LOGP>  (1) 
-2.57

>  <JCHEM_LOGP>  (1) 
-2.7921332976482773

>  <ALOGPS_LOGS>  (1) 
-0.72

>  <JCHEM_MDDR_LIKE_RULE>  (1) 
0

>  <JCHEM_NEUTRAL_CHARGE>  (1) 
0

>  <JCHEM_NUMBER_OF_RINGS>  (1) 
0

>  <JCHEM_PHYSIOLOGICAL_CHARGE>  (1) 
0

>  <JCHEM_PKA>  (1) 
10.171891903949282

>  <JCHEM_PKA_STRONGEST_ACIDIC>  (1) 
2.345995198078135

>  <JCHEM_PKA_STRONGEST_BASIC>  (1) 
9.053809511128133

>  <JCHEM_POLAR_SURFACE_AREA>  (1) 
63.31999999999999

>  <JCHEM_REFRACTIVITY>  (1) 
28.2236

>  <JCHEM_ROTATABLE_BOND_COUNT>  (1) 
2

>  <JCHEM_RULE_OF_FIVE>  (1) 
1

>  <ALOGPS_SOLUBILITY>  (1) 
2.31e+01 g/l

>  <JCHEM_TRADITIONAL_IUPAC>  (1) 
biotin

>  <JCHEM_VEBER_RULE>  (1) 
0

>  <DRUGBANK_ID>  (1) 
DB00151

>  <SECONDARY_ACCESSION_NUMBERS>  (1) 
NUTR00018; DB04443; DB09485

>  <DRUG_GROUPS>  (1) 
approved; investigational; nutraceutical

>  <GENERIC_NAME>  (1) 
Cysteine

>  <SYNONYMS>  (1) 
(2R)-2-amino-3-mercaptopropanoic acid; (2R)-2-amino-3-sulfanylpropanoic acid; (R)-2-Amino-3-mercaptopropanoic acid; Cisteina; Cisteinum; Cys; Cysteine; Cysteinum; Free Cysteine; L-2-Amino-3-mercaptopropionic acid; L-Cys; L-Cystein; L-cysteine; L-Zystein

>  <PRODUCTS>  (1) 
8.5% Freamine III; Aminoderm Poudre; Aminosyn HF; Cicatrin Powder; Cysteine Hydrochloride; Distilpure Msm; Elcys; FreAmine HBC; FreAmine III; HepatAmine; Hepatasol; L Cysteine HCl Inj 50mg/ml; L-Cysteine Hydrochloride; Medi Msm (methyl Sulfonyl Methane); NephrAmine; Nephramine Liq IV; Nouress; Premasol - sulfite-free (Amino Acid); Primene; Primene 10%; Primene 10%-liq IV; ProcalAmine; TrophAmine; Vamin 18 Electrolyte-free; Vamin N

>  <INTERNATIONAL_BRANDS>  (1) 
Nouress

>  <SALTS>  (1) 
Cysteine hydrochloride

$$$$
