
     RDKit          2D

 53 36  0  0  0  0  0  0  0  0999 V2000
   -5.7057    0.0576    0.0000 Fe  0  0  0  0  0 15  0  0  0  0  0  0
   -1.7493   -0.2071    0.0000 O   0  0  0  0  0  0  0  0  0  0  0  0
   -1.0310    0.2071    0.0000 C   0  0  0  0  0  0  0  0  0  0  0  0
   -0.3177   -0.2071    0.0000 C   0  0  0  0  0  0  0  0  0  0  0  0
    0.3957    0.2071    0.0000 C   0  0  0  0  0  0  0  0  0  0  0  0
    1.1138   -0.2071    0.0000 C   0  0  0  0  0  0  0  0  0  0  0  0
    1.8320    0.2071    0.0000 C   0  0  0  0  0  0  0  0  0  0  0  0
    2.5453   -0.2071    0.0000 O   0  0  0  0  0  0  0  0  0  0  0  0
    1.8320    1.0311    0.0000 O   0  0  0  0  0  0  0  0  0  0  0  0
    0.3957    1.0311    0.0000 O   0  0  0  0  0  0  0  0  0  0  0  0
    0.3957   -0.6122    0.0000 C   0  0  0  0  0  0  0  0  0  0  0  0
   -0.3269   -1.0264    0.0000 O   0  0  0  0  0  0  0  0  0  0  0  0
    1.1092   -1.0311    0.0000 O   0  0  0  0  0  0  0  0  0  0  0  0
   -1.0310    1.0311    0.0000 O   0  0  0  0  0  0  0  0  0  0  0  0
    5.7057    0.4142    0.0000 O   0  0  0  0  0  0  0  0  0  0  0  0
    5.7057    0.4142    0.0000 O   0  0  0  0  0  0  0  0  0  0  0  0
    5.7057    0.4142    0.0000 O   0  0  0  0  0  0  0  0  0  0  0  0
    5.7057    0.4142    0.0000 O   0  0  0  0  0  0  0  0  0  0  0  0
    5.7057    0.4142    0.0000 O   0  0  0  0  0  0  0  0  0  0  0  0
    5.7057    0.4142    0.0000 O   0  0  0  0  0  0  0  0  0  0  0  0
    5.7057    0.4142    0.0000 O   0  0  0  0  0  0  0  0  0  0  0  0
    5.7057    0.4142    0.0000 O   0  0  0  0  0  0  0  0  0  0  0  0
    5.7057    0.4142    0.0000 O   0  0  0  0  0  0  0  0  0  0  0  0
    5.7057    0.4142    0.0000 O   0  0  0  0  0  0  0  0  0  0  0  0
   -5.7057    0.0576    0.0000 Fe  0  0  0  0  0 15  0  0  0  0  0  0
   -5.7057    0.0576    0.0000 Fe  0  0  0  0  0 15  0  0  0  0  0  0
   -5.7057    0.0576    0.0000 Fe  0  0  0  0  0 15  0  0  0  0  0  0
   -1.7493   -0.2071    0.0000 O   0  0  0  0  0  0  0  0  0  0  0  0
   -1.0310    0.2071    0.0000 C   0  0  0  0  0  0  0  0  0  0  0  0
   -0.3177   -0.2071    0.0000 C   0  0  0  0  0  0  0  0  0  0  0  0
    0.3957    0.2071    0.0000 C   0  0  0  0  0  0  0  0  0  0  0  0
    1.1138   -0.2071    0.0000 C   0  0  0  0  0  0  0  0  0  0  0  0
    1.8320    0.2071    0.0000 C   0  0  0  0  0  0  0  0  0  0  0  0
    2.5453   -0.2071    0.0000 O   0  0  0  0  0  0  0  0  0  0  0  0
    1.8320    1.0311    0.0000 O   0  0  0  0  0  0  0  0  0  0  0  0
    0.3957    1.0311    0.0000 O   0  0  0  0  0  0  0  0  0  0  0  0
    0.3957   -0.6122    0.0000 C   0  0  0  0  0  0  0  0  0  0  0  0
   -0.3269   -1.0264    0.0000 O   0  0  0  0  0  0  0  0  0  0  0  0
    1.1092   -1.0311    0.0000 O   0  0  0  0  0  0  0  0  0  0  0  0
   -1.0310    1.0311    0.0000 O   0  0  0  0  0  0  0  0  0  0  0  0
   -1.7493   -0.2071    0.0000 O   0  0  0  0  0  0  0  0  0  0  0  0
   -1.0310    0.2071    0.0000 C   0  0  0  0  0  0  0  0  0  0  0  0
   -0.3177   -0.2071    0.0000 C   0  0  0  0  0  0  0  0  0  0  0  0
    0.3957    0.2071    0.0000 C   0  0  0  0  0  0  0  0  0  0  0  0
    1.1138   -0.2071    0.0000 C   0  0  0  0  0  0  0  0  0  0  0  0
    1.8320    0.2071    0.0000 C   0  0  0  0  0  0  0  0  0  0  0  0
    2.5453   -0.2071    0.0000 O   0  0  0  0  0  0  0  0  0  0  0  0
    1.8320    1.0311    0.0000 O   0  0  0  0  0  0  0  0  0  0  0  0
    0.3957    1.0311    0.0000 O   0  0  0  0  0  0  0  0  0  0  0  0
    0.3957   -0.6122    0.0000 C   0  0  0  0  0  0  0  0  0  0  0  0
   -0.3269   -1.0264    0.0000 O   0  0  0  0  0  0  0  0  0  0  0  0
    1.1092   -1.0311    0.0000 O   0  0  0  0  0  0  0  0  0  0  0  0
   -1.0310    1.0311    0.0000 O   0  0  0  0  0  0  0  0  0  0  0  0
  2  3  1  0
  3 14  2  0
  3  4  1  0
  4  5  1  0
  5  6  1  0
  5 10  1  0
  5 11  1  0
  6  7  1  0
  7  8  1  0
  7  9  2  0
 11 12  2  0
 11 13  1  0
 28 29  1  0
 29 40  2  0
 29 30  1  0
 30 31  1  0
 31 32  1  0
 31 36  1  0
 31 37  1  0
 32 33  1  0
 33 34  1  0
 33 35  2  0
 37 38  2  0
 37 39  1  0
 41 42  1  0
 42 53  2  0
 42 43  1  0
 43 44  1  0
 44 45  1  0
 44 49  1  0
 44 50  1  0
 45 46  1  0
 46 47  1  0
 46 48  2  0
 50 51  2  0
 50 52  1  0
M  CHG  8   1   3   2  -1   8  -1  10  -1  13  -1  25   3  26   3  27   3
M  CHG  8  28  -1  34  -1  36  -1  39  -1  41  -1  47  -1  49  -1  52  -1
M  END
>  <DATABASE_ID>  (1) 
DB14520

>  <DATABASE_NAME>  (1) 
drugbank

>  <SMILES>  (1) 
O.O.O.O.O.O.O.O.O.O.[Fe+3].[Fe+3].[Fe+3].[Fe+3].[O-]C(=O)CC([O-])(CC([O-])=O)C([O-])=O.[O-]C(=O)CC([O-])(CC([O-])=O)C([O-])=O.[O-]C(=O)CC([O-])(CC([O-])=O)C([O-])=O

>  <INCHI_IDENTIFIER>  (1) 
InChI=1S/3C6H7O7.4Fe.10H2O/c3*7-3(8)1-6(13,5(11)12)2-4(9)10;;;;;;;;;;;;;;/h3*1-2H2,(H,7,8)(H,9,10)(H,11,12);;;;;10*1H2/q3*-1;4*+3;;;;;;;;;;/p-9

>  <INCHI_KEY>  (1) 
UISKQNNAQKPSDO-UHFFFAOYSA-E

>  <FORMULA>  (1) 
C18H32Fe4O31

>  <MOLECULAR_WEIGHT>  (1) 
967.803

>  <EXACT_MASS>  (1) 
967.832498

>  <JCHEM_ACCEPTOR_COUNT>  (1) 
7

>  <JCHEM_ATOM_COUNT>  (1) 
85

>  <JCHEM_AVERAGE_POLARIZABILITY>  (1) 
13.972144370577094

>  <JCHEM_BIOAVAILABILITY>  (1) 
0

>  <JCHEM_DONOR_COUNT>  (1) 
0

>  <JCHEM_FORMAL_CHARGE>  (1) 
0

>  <JCHEM_GHOSE_FILTER>  (1) 
0

>  <JCHEM_IUPAC>  (1) 
tetrairon(3+) tris(2-oxidopropane-1,2,3-tricarboxylate) decahydrate

>  <ALOGPS_LOGP>  (1) 
1.42

>  <JCHEM_LOGP>  (1) 
-1.3226874519999998

>  <ALOGPS_LOGS>  (1) 
-3.19

>  <JCHEM_MDDR_LIKE_RULE>  (1) 
0

>  <JCHEM_NUMBER_OF_RINGS>  (1) 
0

>  <JCHEM_PHYSIOLOGICAL_CHARGE>  (1) 
-3

>  <JCHEM_PKA>  (1) 
4.674836176324002

>  <JCHEM_PKA_STRONGEST_ACIDIC>  (1) 
3.0479515131680714

>  <JCHEM_PKA_STRONGEST_BASIC>  (1) 
-4.185693450231931

>  <JCHEM_POLAR_SURFACE_AREA>  (1) 
143.45

>  <JCHEM_REFRACTIVITY>  (1) 
78.6855

>  <JCHEM_ROTATABLE_BOND_COUNT>  (1) 
15

>  <JCHEM_RULE_OF_FIVE>  (1) 
0

>  <ALOGPS_SOLUBILITY>  (1) 
5.03e-01 g/l

>  <JCHEM_TRADITIONAL_IUPAC>  (1) 
tetrairon(3+) tris(2-oxidopropane-1,2,3-tricarboxylate) decahydrate

>  <JCHEM_VEBER_RULE>  (1) 
0

>  <DRUGBANK_ID>  (1) 
DB14520

>  <SECONDARY_ACCESSION_NUMBERS>  (1) 
DBSALT002619

>  <DRUG_GROUPS>  (1) 
approved; investigational

>  <GENERIC_NAME>  (1) 
Tetraferric tricitrate decahydrate

>  <SYNONYMS>  (1) 
Ferric citrate; Ferric citrate hydrate

>  <PRODUCTS>  (1) 
Auryxia; Ferric Citrate; Maxine Vitamin and Mineral Supplement

$$$$
