
     RDKit          2D

 13 13  0  0  0  0  0  0  0  0999 V2000
    2.1454    0.8216    0.0000 Au  0  0  0  0  0  1  0  0  0  0  0  0
    1.4331    1.2379    0.0000 S   0  0  0  0  0  0  0  0  0  0  0  0
    0.0042    1.2379    0.0000 O   0  0  0  0  0  0  0  0  0  0  0  0
    1.4331   -0.4140    0.0000 O   0  0  0  0  0  0  0  0  0  0  0  0
    0.0042   -1.2379    0.0000 O   0  0  0  0  0  0  0  0  0  0  0  0
   -1.4288   -0.4140    0.0000 O   0  0  0  0  0  0  0  0  0  0  0  0
   -2.1454    0.8259    0.0000 O   0  0  0  0  0  0  0  0  0  0  0  0
    0.7165   -0.0021    0.0000 C   0  0  0  0  0  0  0  0  0  0  0  0
    0.0042   -0.4140    0.0000 C   0  0  0  0  0  0  0  0  0  0  0  0
    0.7165    0.8216    0.0000 C   0  0  0  0  0  0  0  0  0  0  0  0
   -0.7123   -0.0021    0.0000 C   0  0  0  0  0  0  0  0  0  0  0  0
   -0.7123    0.8216    0.0000 C   0  0  0  0  0  0  0  0  0  0  0  0
   -1.4288    1.2379    0.0000 C   0  0  0  0  0  0  0  0  0  0  0  0
  1  2  1  0
 10  2  1  6
  3 10  1  0
  3 12  1  0
  8  4  1  6
  9  5  1  1
 11  6  1  6
  7 13  1  0
  8  9  1  0
  8 10  1  0
  9 11  1  0
 11 12  1  0
 12 13  1  1
M  END
>  <DATABASE_ID>  (1) 
DB09121

>  <DATABASE_NAME>  (1) 
drugbank

>  <SMILES>  (1) 
OC[C@H]1O[C@H](S[Au])[C@H](O)[C@@H](O)[C@@H]1O

>  <INCHI_IDENTIFIER>  (1) 
InChI=1S/C6H12O5S.Au/c7-1-2-3(8)4(9)5(10)6(12)11-2;/h2-10,12H,1H2;/q;+1/p-1/t2-,3-,4+,5-,6-;/m1./s1

>  <INCHI_KEY>  (1) 
XHVAWZZCDCWGBK-WYRLRVFGSA-M

>  <FORMULA>  (1) 
C6H11AuO5S

>  <MOLECULAR_WEIGHT>  (1) 
392.18

>  <EXACT_MASS>  (1) 
391.999289

>  <JCHEM_ACCEPTOR_COUNT>  (1) 
5

>  <JCHEM_ATOM_COUNT>  (1) 
24

>  <JCHEM_AVERAGE_POLARIZABILITY>  (1) 
19.879881240826403

>  <JCHEM_BIOAVAILABILITY>  (1) 
1

>  <JCHEM_DONOR_COUNT>  (1) 
4

>  <JCHEM_FORMAL_CHARGE>  (1) 
0

>  <JCHEM_GHOSE_FILTER>  (1) 
0

>  <JCHEM_IUPAC>  (1) 
{[(2R,3R,4S,5S,6R)-3,4,5-trihydroxy-6-(hydroxymethyl)oxan-2-yl]sulfanyl}gold

>  <ALOGPS_LOGP>  (1) 
-1.81

>  <JCHEM_LOGP>  (1) 
-2.2418000000000005

>  <ALOGPS_LOGS>  (1) 
-0.61

>  <JCHEM_MDDR_LIKE_RULE>  (1) 
0

>  <JCHEM_NUMBER_OF_RINGS>  (1) 
1

>  <JCHEM_PHYSIOLOGICAL_CHARGE>  (1) 
0

>  <JCHEM_PKA>  (1) 
13.395515728038873

>  <JCHEM_PKA_STRONGEST_ACIDIC>  (1) 
12.513949319837462

>  <JCHEM_PKA_STRONGEST_BASIC>  (1) 
-2.9797186489307927

>  <JCHEM_POLAR_SURFACE_AREA>  (1) 
90.15

>  <JCHEM_REFRACTIVITY>  (1) 
41.2457

>  <JCHEM_ROTATABLE_BOND_COUNT>  (1) 
2

>  <JCHEM_RULE_OF_FIVE>  (1) 
1

>  <ALOGPS_SOLUBILITY>  (1) 
9.64e+01 g/l

>  <JCHEM_TRADITIONAL_IUPAC>  (1) 
aurothioglucose

>  <JCHEM_VEBER_RULE>  (1) 
0

>  <DRUGBANK_ID>  (1) 
DB09121

>  <DRUG_GROUPS>  (1) 
approved; withdrawn

>  <GENERIC_NAME>  (1) 
Aurothioglucose

>  <SYNONYMS>  (1) 
Auromyose; Aurothioglucose; Gold thioglucose

>  <PRODUCTS>  (1) 
Solganal Inj 50mg/ml

>  <INTERNATIONAL_BRANDS>  (1) 
Brenol; Oronol; Romosol; Solganal; Solganal B

$$$$
