909
     RDKit          2D

 14 15  0  0  0  0  0  0  0  0999 V2000
    4.9232    0.8180    0.0000 S   0  0  0  0  0  0  0  0  0  0  0  0
    3.8596   -1.4641    0.0000 O   0  0  0  0  0  0  0  0  0  0  0  0
    4.7530    1.6253    0.0000 O   0  0  0  0  0  0  0  0  0  0  0  0
    5.0934    0.0107    0.0000 O   0  0  0  0  0  0  0  0  0  0  0  0
    4.3411   -0.8003    0.0000 N   0  0  0  0  0  0  0  0  0  0  0  0
    5.7304    0.9881    0.0000 N   0  0  0  0  0  0  0  0  0  0  0  0
    4.1159    0.6479    0.0000 C   0  0  0  0  0  0  0  0  0  0  0  0
    3.8596   -0.1364    0.0000 C   0  0  0  0  0  0  0  0  0  0  0  0
    3.0790   -0.3878    0.0000 C   0  0  0  0  0  0  0  0  0  0  0  0
    3.0790   -1.2128    0.0000 C   0  0  0  0  0  0  0  0  0  0  0  0
    2.3645    0.0248    0.0000 C   0  0  0  0  0  0  0  0  0  0  0  0
    2.3645   -1.6253    0.0000 C   0  0  0  0  0  0  0  0  0  0  0  0
    1.6500   -0.3878    0.0000 C   0  0  0  0  0  0  0  0  0  0  0  0
    1.6500   -1.2128    0.0000 C   0  0  0  0  0  0  0  0  0  0  0  0
  1  3  2  0
  1  4  2  0
  1  6  1  0
  1  7  1  0
  2  5  1  0
  2 10  1  0
  5  8  2  0
  7  8  1  0
  8  9  1  0
  9 10  2  0
  9 11  1  0
 10 12  1  0
 11 13  2  0
 12 14  2  0
 13 14  1  0
M  END
>  <DATABASE_ID>  (1) 
DB00909

>  <DATABASE_NAME>  (1) 
drugbank

>  <SMILES>  (1) 
NS(=O)(=O)CC1=NOC2=CC=CC=C12

>  <INCHI_IDENTIFIER>  (1) 
InChI=1S/C8H8N2O3S/c9-14(11,12)5-7-6-3-1-2-4-8(6)13-10-7/h1-4H,5H2,(H2,9,11,12)

>  <INCHI_KEY>  (1) 
UBQNRHZMVUUOMG-UHFFFAOYSA-N

>  <FORMULA>  (1) 
C8H8N2O3S

>  <MOLECULAR_WEIGHT>  (1) 
212.226

>  <EXACT_MASS>  (1) 
212.025562822

>  <JCHEM_ACCEPTOR_COUNT>  (1) 
3

>  <JCHEM_ATOM_COUNT>  (1) 
22

>  <JCHEM_AVERAGE_NEUTRAL_MICROSPECIES_CHARGE>  (1) 
-0.001456888333660651

>  <JCHEM_AVERAGE_POLARIZABILITY>  (1) 
19.479884395003968

>  <JCHEM_BIOAVAILABILITY>  (1) 
1

>  <JCHEM_DONOR_COUNT>  (1) 
1

>  <JCHEM_FORMAL_CHARGE>  (1) 
0

>  <JCHEM_GHOSE_FILTER>  (1) 
1

>  <JCHEM_IUPAC>  (1) 
(1,2-benzoxazol-3-yl)methanesulfonamide

>  <ALOGPS_LOGP>  (1) 
0.67

>  <JCHEM_LOGP>  (1) 
0.1106864246666666

>  <ALOGPS_LOGS>  (1) 
-2.01

>  <JCHEM_MDDR_LIKE_RULE>  (1) 
0

>  <JCHEM_NEUTRAL_CHARGE>  (1) 
0

>  <JCHEM_NUMBER_OF_RINGS>  (1) 
2

>  <JCHEM_PHYSIOLOGICAL_CHARGE>  (1) 
0

>  <JCHEM_PKA_STRONGEST_ACIDIC>  (1) 
9.835940037487987

>  <JCHEM_PKA_STRONGEST_BASIC>  (1) 
-1.7478714464152556

>  <JCHEM_POLAR_SURFACE_AREA>  (1) 
86.19

>  <JCHEM_REFRACTIVITY>  (1) 
50.2984

>  <JCHEM_ROTATABLE_BOND_COUNT>  (1) 
2

>  <JCHEM_RULE_OF_FIVE>  (1) 
1

>  <ALOGPS_SOLUBILITY>  (1) 
2.09e+00 g/l

>  <JCHEM_TRADITIONAL_IUPAC>  (1) 
tetrahydrofolic acid

>  <JCHEM_VEBER_RULE>  (1) 
0

>  <DRUGBANK_ID>  (1) 
DB00909

>  <SECONDARY_ACCESSION_NUMBERS>  (1) 
APRD00004

>  <DRUG_GROUPS>  (1) 
approved; investigational

>  <GENERIC_NAME>  (1) 
Zonisamide

>  <SYNONYMS>  (1) 
1,2-Benzisoxazole-3-methanesulfonamide; 3-(Sulfamoylmethyl)-1,2-benzisoxazole; Benzo[d]isoxazol-3-yl-methanesulfonamide; Zonisamida; Zonisamide; Zonisamidum

>  <PRODUCTS>  (1) 
Zonegran; Zonisade; Zonisamide; Zonisamide Mylan

>  <INTERNATIONAL_BRANDS>  (1) 
Exceglan; Excegram

$$$$
