664
     RDKit          2D

 19 20  0  0  0  0  0  0  0  0999 V2000
    2.4751    0.1279    0.0000 S   0  0  0  0  0  0  0  0  0  0  0  0
    1.6500    0.1279    0.0000 O   0  0  0  0  0  0  0  0  0  0  0  0
    3.3001    0.1279    0.0000 O   0  0  0  0  0  0  0  0  0  0  0  0
    2.4751    2.6029    0.0000 O   0  0  0  0  0  0  0  0  0  0  0  0
    2.4751    0.9529    0.0000 N   0  0  0  0  0  0  0  0  0  0  0  0
    3.9041    0.9529    0.0000 N   0  0  0  0  0  0  0  0  0  0  0  0
    2.4751   -3.1722    0.0000 N   0  0  0  0  0  0  0  0  0  0  0  0
    3.9041    2.6029    0.0000 N   0  0  0  0  0  0  0  0  0  0  0  0
    2.4751   -0.6971    0.0000 C   0  0  0  0  0  0  0  0  0  0  0  0
    1.7606   -1.1096    0.0000 C   0  0  0  0  0  0  0  0  0  0  0  0
    3.1895   -1.1096    0.0000 C   0  0  0  0  0  0  0  0  0  0  0  0
    3.1895    1.3654    0.0000 C   0  0  0  0  0  0  0  0  0  0  0  0
    2.4751   -2.3472    0.0000 C   0  0  0  0  0  0  0  0  0  0  0  0
    1.7606   -1.9347    0.0000 C   0  0  0  0  0  0  0  0  0  0  0  0
    3.1895   -1.9347    0.0000 C   0  0  0  0  0  0  0  0  0  0  0  0
    3.1895    2.1904    0.0000 C   0  0  0  0  0  0  0  0  0  0  0  0
    4.6185    1.3654    0.0000 C   0  0  0  0  0  0  0  0  0  0  0  0
    4.6185    2.1904    0.0000 C   0  0  0  0  0  0  0  0  0  0  0  0
    2.4751    3.4280    0.0000 C   0  0  0  0  0  0  0  0  0  0  0  0
  1  2  2  0
  1  3  2  0
  1  5  1  0
  1  9  1  0
  4 16  1  0
  4 19  1  0
  5 12  1  0
  6 12  2  0
  6 17  1  0
  7 13  1  0
  8 16  2  0
  8 18  1  0
  9 10  2  0
  9 11  1  0
 10 14  1  0
 11 15  2  0
 12 16  1  0
 13 14  2  0
 13 15  1  0
 17 18  2  0
M  END
>  <DATABASE_ID>  (1) 
DB00664

>  <DATABASE_NAME>  (1) 
drugbank

>  <SMILES>  (1) 
COC1=NC=CN=C1NS(=O)(=O)C1=CC=C(N)C=C1

>  <INCHI_IDENTIFIER>  (1) 
InChI=1S/C11H12N4O3S/c1-18-11-10(13-6-7-14-11)15-19(16,17)9-4-2-8(12)3-5-9/h2-7H,12H2,1H3,(H,13,15)

>  <INCHI_KEY>  (1) 
KXRZBTAEDBELFD-UHFFFAOYSA-N

>  <FORMULA>  (1) 
C11H12N4O3S

>  <MOLECULAR_WEIGHT>  (1) 
280.303

>  <EXACT_MASS>  (1) 
280.06301096

>  <JCHEM_ACCEPTOR_COUNT>  (1) 
6

>  <JCHEM_ATOM_COUNT>  (1) 
31

>  <JCHEM_AVERAGE_NEUTRAL_MICROSPECIES_CHARGE>  (1) 
-0.9241514115364741

>  <JCHEM_AVERAGE_POLARIZABILITY>  (1) 
27.1212747710556

>  <JCHEM_BIOAVAILABILITY>  (1) 
1

>  <JCHEM_DONOR_COUNT>  (1) 
2

>  <JCHEM_FORMAL_CHARGE>  (1) 
0

>  <JCHEM_GHOSE_FILTER>  (1) 
1

>  <JCHEM_IUPAC>  (1) 
4-amino-N-(3-methoxypyrazin-2-yl)benzene-1-sulfonamide

>  <ALOGPS_LOGP>  (1) 
0.41

>  <JCHEM_LOGP>  (1) 
0.2278840863333335

>  <ALOGPS_LOGS>  (1) 
-2.84

>  <JCHEM_MDDR_LIKE_RULE>  (1) 
0

>  <JCHEM_NEUTRAL_CHARGE>  (1) 
-1

>  <JCHEM_NUMBER_OF_RINGS>  (1) 
2

>  <JCHEM_PHYSIOLOGICAL_CHARGE>  (1) 
-1

>  <JCHEM_PKA_STRONGEST_ACIDIC>  (1) 
5.914239751815079

>  <JCHEM_PKA_STRONGEST_BASIC>  (1) 
1.9754890242401557

>  <JCHEM_POLAR_SURFACE_AREA>  (1) 
107.2

>  <JCHEM_REFRACTIVITY>  (1) 
70.36700000000002

>  <JCHEM_ROTATABLE_BOND_COUNT>  (1) 
3

>  <JCHEM_RULE_OF_FIVE>  (1) 
1

>  <ALOGPS_SOLUBILITY>  (1) 
4.06e-01 g/l

>  <JCHEM_TRADITIONAL_IUPAC>  (1) 
biotin

>  <JCHEM_VEBER_RULE>  (1) 
0

>  <DRUGBANK_ID>  (1) 
DB00664

>  <SECONDARY_ACCESSION_NUMBERS>  (1) 
APRD00517

>  <DRUG_GROUPS>  (1) 
approved; withdrawn

>  <GENERIC_NAME>  (1) 
Sulfametopyrazine

>  <SYNONYMS>  (1) 
Solfametopirazina; Sulfalene; Sulfaleno; Sulfalenum; Sulfamethopyrazine; Sulfamethoxypyrazine

>  <INTERNATIONAL_BRANDS>  (1) 
Kelfizina

$$$$
