
     RDKit          2D

 28 29  0  0  1  0  0  0  0  0999 V2000
    0.8758   -0.6649    0.0000 O   0  0  0  0  0  0  0  0  0  0  0  0
    0.8758   -1.4899    0.0000 C   0  0  0  0  0  0  0  0  0  0  0  0
    0.1613   -1.9024    0.0000 C   0  0  0  0  0  0  0  0  0  0  0  0
   -0.5531   -1.4899    0.0000 C   0  0  0  0  0  0  0  0  0  0  0  0
   -1.2675   -1.9024    0.0000 C   0  0  0  0  0  0  0  0  0  0  0  0
   -1.3538   -2.7229    0.0000 C   0  0  0  0  0  0  0  0  0  0  0  0
   -0.7407   -3.2749    0.0000 O   0  0  0  0  0  0  0  0  0  0  0  0
   -2.1608   -2.8944    0.0000 C   0  0  0  0  0  0  0  0  0  0  0  0
   -2.5733   -2.1800    0.0000 C   0  0  0  0  0  0  0  0  0  0  0  0
   -3.3937   -2.0937    0.0000 O   0  0  0  0  0  0  0  0  0  0  0  0
   -2.0212   -1.5668    0.0000 C   0  0  0  0  0  0  0  0  0  0  0  0
   -2.1928   -0.7599    0.0000 C   0  0  0  0  0  0  0  0  0  0  0  0
   -1.5796   -0.2078    0.0000 C   0  0  0  0  0  0  0  0  0  0  0  0
   -1.7512    0.5990    0.0000 C   0  0  0  0  0  0  0  0  0  0  0  0
   -2.5358    0.8540    0.0000 C   0  0  0  0  0  0  0  0  0  0  0  0
   -2.7073    1.6610    0.0000 C   0  0  0  0  0  0  0  0  0  0  0  0
   -3.4920    1.9159    0.0000 C   0  0  0  0  0  0  0  0  0  0  0  0
   -3.6635    2.7229    0.0000 C   0  0  0  0  0  0  0  0  0  0  0  0
   -4.4481    2.9778    0.0000 O   0  0  0  0  0  0  0  0  0  0  0  0
   -3.0504    3.2749    0.0000 O   0  0  0  0  0  0  0  0  0  0  0  0
    1.5902   -1.9024    0.0000 C   0  0  0  0  0  0  0  0  0  0  0  0
    2.3047   -1.4899    0.0000 C   0  0  0  0  0  0  0  0  0  0  0  0
    3.0192   -1.9024    0.0000 C   0  0  0  0  0  0  0  0  0  0  0  0
    3.7336   -1.4899    0.0000 C   0  0  0  0  0  0  0  0  0  0  0  0
    4.4481   -1.9024    0.0000 C   0  0  0  0  0  0  0  0  0  0  0  0
    4.4481   -2.7274    0.0000 C   0  0  0  0  0  0  0  0  0  0  0  0
    3.7336   -3.1399    0.0000 C   0  0  0  0  0  0  0  0  0  0  0  0
    3.0192   -2.7274    0.0000 C   0  0  0  0  0  0  0  0  0  0  0  0
  2  1  1  1
  2  3  1  0
  3  4  1  0
  5  4  1  1
  5  6  1  0
  6  7  1  6
  6  8  1  0
  9  8  1  0
  9 10  1  6
 11  9  1  0
  5 11  1  0
 11 12  1  6
 12 13  1  0
 13 14  2  0
 14 15  1  0
 15 16  1  0
 16 17  1  0
 17 18  1  0
 18 19  1  0
 18 20  2  0
  2 21  1  0
 21 22  1  0
 22 23  1  0
 23 24  2  0
 24 25  1  0
 25 26  2  0
 26 27  1  0
 27 28  2  0
 23 28  1  0
M  END
>  <DATABASE_ID>  (1) 
DB19360

>  <DATABASE_NAME>  (1) 
drugbank

>  <SMILES>  (1) 
O[C@H](CC[C@H]1[C@H](O)C[C@H](O)[C@@H]1C\C=C/CCCC(O)=O)CCC1=CC=CC=C1

>  <INCHI_IDENTIFIER>  (1) 
InChI=1S/C23H34O5/c24-18(13-12-17-8-4-3-5-9-17)14-15-20-19(21(25)16-22(20)26)10-6-1-2-7-11-23(27)28/h1,3-6,8-9,18-22,24-26H,2,7,10-16H2,(H,27,28)/b6-1-/t18-,19+,20+,21-,22+/m0/s1

>  <INCHI_KEY>  (1) 
HNPFPERDNWXAGS-NFVOFSAMSA-N

>  <FORMULA>  (1) 
C23H34O5

>  <MOLECULAR_WEIGHT>  (1) 
390.52

>  <EXACT_MASS>  (1) 
390.240624195

>  <JCHEM_ACCEPTOR_COUNT>  (1) 
5

>  <JCHEM_ATOM_COUNT>  (1) 
62

>  <JCHEM_AVERAGE_POLARIZABILITY>  (1) 
45.019003301191944

>  <JCHEM_BIOAVAILABILITY>  (1) 
1

>  <JCHEM_DONOR_COUNT>  (1) 
4

>  <JCHEM_FORMAL_CHARGE>  (1) 
0

>  <JCHEM_GHOSE_FILTER>  (1) 
1

>  <JCHEM_IUPAC>  (1) 
(5Z)-7-[(1R,2R,3R,5S)-3,5-dihydroxy-2-[(3R)-3-hydroxy-5-phenylpentyl]cyclopentyl]hept-5-enoic acid

>  <ALOGPS_LOGP>  (1) 
4.05

>  <JCHEM_LOGP>  (1) 
3.0617352566666662

>  <ALOGPS_LOGS>  (1) 
-4.01

>  <JCHEM_MDDR_LIKE_RULE>  (1) 
0

>  <JCHEM_NUMBER_OF_RINGS>  (1) 
2

>  <JCHEM_PHYSIOLOGICAL_CHARGE>  (1) 
-1

>  <JCHEM_PKA>  (1) 
14.468506924970228

>  <JCHEM_PKA_STRONGEST_ACIDIC>  (1) 
4.30630545881462

>  <JCHEM_PKA_STRONGEST_BASIC>  (1) 
-2.6894106134355082

>  <JCHEM_POLAR_SURFACE_AREA>  (1) 
97.99

>  <JCHEM_REFRACTIVITY>  (1) 
110.40109999999999

>  <JCHEM_ROTATABLE_BOND_COUNT>  (1) 
12

>  <JCHEM_RULE_OF_FIVE>  (1) 
1

>  <ALOGPS_SOLUBILITY>  (1) 
3.85e-02 g/l

>  <JCHEM_TRADITIONAL_IUPAC>  (1) 
latanoprost acid

>  <JCHEM_VEBER_RULE>  (1) 
0

>  <DRUGBANK_ID>  (1) 
DB19360

>  <DRUG_GROUPS>  (1) 
approved

>  <GENERIC_NAME>  (1) 
Latanoprost acid

>  <SYNONYMS>  (1) 
13,14-dihydro-17-phenyl trinor pgf2.alpha.; 13,14-dihydro-17-phenyl-18,19,20-trinor-pgf2.alpha.; 5-heptenoic acid, 7-((1r,2r,3r,5s)-3,5-dihydroxy-2-((3r)-3-hydroxy-5-phenylpentyl)cyclopentyl)-, (5z)-; Latanoprost related compound e

$$$$
