291
     RDKit          2D

 19 19  0  0  0  0  0  0  0  0999 V2000
    2.3645    3.8405    0.0000 Cl  0  0  0  0  0  0  0  0  0  0  0  0
    5.2224    3.8405    0.0000 Cl  0  0  0  0  0  0  0  0  0  0  0  0
    2.3645   -3.5847    0.0000 O   0  0  0  0  0  0  0  0  0  0  0  0
    1.6500   -2.3472    0.0000 O   0  0  0  0  0  0  0  0  0  0  0  0
    3.7935    2.1904    0.0000 N   0  0  0  0  0  0  0  0  0  0  0  0
    3.7935    1.3654    0.0000 C   0  0  0  0  0  0  0  0  0  0  0  0
    3.7935   -1.1096    0.0000 C   0  0  0  0  0  0  0  0  0  0  0  0
    3.7935   -0.2846    0.0000 C   0  0  0  0  0  0  0  0  0  0  0  0
    3.0791   -1.5222    0.0000 C   0  0  0  0  0  0  0  0  0  0  0  0
    3.0791    2.6029    0.0000 C   0  0  0  0  0  0  0  0  0  0  0  0
    4.5080    2.6029    0.0000 C   0  0  0  0  0  0  0  0  0  0  0  0
    3.0791    0.9529    0.0000 C   0  0  0  0  0  0  0  0  0  0  0  0
    4.5080    0.9529    0.0000 C   0  0  0  0  0  0  0  0  0  0  0  0
    3.0791    0.1279    0.0000 C   0  0  0  0  0  0  0  0  0  0  0  0
    4.5080    0.1279    0.0000 C   0  0  0  0  0  0  0  0  0  0  0  0
    3.0791   -2.3472    0.0000 C   0  0  0  0  0  0  0  0  0  0  0  0
    3.0791    3.4280    0.0000 C   0  0  0  0  0  0  0  0  0  0  0  0
    4.5080    3.4280    0.0000 C   0  0  0  0  0  0  0  0  0  0  0  0
    2.3645   -2.7597    0.0000 C   0  0  0  0  0  0  0  0  0  0  0  0
  1 17  1  0
  2 18  1  0
  3 19  1  0
  4 19  2  0
  5  6  1  0
  5 10  1  0
  5 11  1  0
  6 12  2  0
  6 13  1  0
  7  8  1  0
  7  9  1  0
  8 14  2  0
  8 15  1  0
  9 16  1  0
 10 17  1  0
 11 18  1  0
 12 14  1  0
 13 15  2  0
 16 19  1  0
M  END
>  <DATABASE_ID>  (1) 
DB00291

>  <DATABASE_NAME>  (1) 
drugbank

>  <SMILES>  (1) 
OC(=O)CCCC1=CC=C(C=C1)N(CCCl)CCCl

>  <INCHI_IDENTIFIER>  (1) 
InChI=1S/C14H19Cl2NO2/c15-8-10-17(11-9-16)13-6-4-12(5-7-13)2-1-3-14(18)19/h4-7H,1-3,8-11H2,(H,18,19)

>  <INCHI_KEY>  (1) 
JCKYGMPEJWAADB-UHFFFAOYSA-N

>  <FORMULA>  (1) 
C14H19Cl2NO2

>  <MOLECULAR_WEIGHT>  (1) 
304.212

>  <EXACT_MASS>  (1) 
303.079284271

>  <JCHEM_ACCEPTOR_COUNT>  (1) 
3

>  <JCHEM_ATOM_COUNT>  (1) 
38

>  <JCHEM_AVERAGE_NEUTRAL_MICROSPECIES_CHARGE>  (1) 
-0.9971833627252101

>  <JCHEM_AVERAGE_POLARIZABILITY>  (1) 
31.982298958363188

>  <JCHEM_BIOAVAILABILITY>  (1) 
1

>  <JCHEM_DONOR_COUNT>  (1) 
1

>  <JCHEM_FORMAL_CHARGE>  (1) 
0

>  <JCHEM_GHOSE_FILTER>  (1) 
1

>  <JCHEM_IUPAC>  (1) 
4-{4-[bis(2-chloroethyl)amino]phenyl}butanoic acid

>  <ALOGPS_LOGP>  (1) 
3.81

>  <JCHEM_LOGP>  (1) 
3.9371549819999987

>  <ALOGPS_LOGS>  (1) 
-3.59

>  <JCHEM_MDDR_LIKE_RULE>  (1) 
0

>  <JCHEM_NEUTRAL_CHARGE>  (1) 
-1

>  <JCHEM_NUMBER_OF_RINGS>  (1) 
1

>  <JCHEM_PHYSIOLOGICAL_CHARGE>  (1) 
-1

>  <JCHEM_PKA_STRONGEST_ACIDIC>  (1) 
4.455549351160488

>  <JCHEM_PKA_STRONGEST_BASIC>  (1) 
1.7171649065281474

>  <JCHEM_POLAR_SURFACE_AREA>  (1) 
40.54

>  <JCHEM_REFRACTIVITY>  (1) 
79.6828

>  <JCHEM_ROTATABLE_BOND_COUNT>  (1) 
9

>  <JCHEM_RULE_OF_FIVE>  (1) 
1

>  <ALOGPS_SOLUBILITY>  (1) 
7.73e-02 g/l

>  <JCHEM_TRADITIONAL_IUPAC>  (1) 
tetrahydrofolic acid

>  <JCHEM_VEBER_RULE>  (1) 
0

>  <DRUGBANK_ID>  (1) 
DB00291

>  <SECONDARY_ACCESSION_NUMBERS>  (1) 
APRD00115

>  <DRUG_GROUPS>  (1) 
approved; investigational

>  <GENERIC_NAME>  (1) 
Chlorambucil

>  <SYNONYMS>  (1) 
4-(p-bis(beta-chloroethyl)aminophenyl)butyric acid; 4-(p-bis(β-chloroethyl)aminophenyl)butyric acid; 4-[p-[bis(2-chloroethyl)amino]phenyl]butyric acid; Ambochlorin; Chlorambucil; Chloraminophen; Clorambucilo; gamma-[p-di(2-chloroethyl)aminophenyl]butyric acid; N,N-di-2-chloroethyl-gamma-p-aminophenylbutyric acid; N,N-di-2-chloroethyl-γ-p-aminophenylbutyric acid; Phenylbutyric acid nitrogen mustard; γ-[p-di(2-chloroethyl)aminophenyl]butyric acid

>  <PRODUCTS>  (1) 
Leukeran

>  <INTERNATIONAL_BRANDS>  (1) 
Celkeran; Chloraminophène

$$$$
