
     RDKit          2D

 12  9  0  0  0  0  0  0  0  0999 V2000
    0.0000   -1.4842    0.0000 C   0  0  0  0  0  0  0  0  0  0  0  0
    0.0000   -0.0552    0.0000 C   0  0  0  0  0  0  0  0  0  0  0  0
    0.4125   -0.7697    0.0000 C   0  0  0  0  0  0  0  0  0  0  0  0
    0.4125   -2.1986    0.0000 O   0  0  0  0  0  0  0  0  0  0  0  0
    1.2375   -0.7697    0.0000 O   0  0  0  0  0  0  0  0  0  0  0  0
    0.7144    1.7861    0.0000 O   0  0  0  0  0  0  0  0  0  0  0  0
   -0.7144    0.9611    0.0000 O   0  0  0  0  0  0  0  0  0  0  0  0
   -0.4125    2.0881    0.0000 O   0  0  0  0  0  0  0  0  0  0  0  0
    0.4125    0.6592    0.0000 O   0  0  0  0  0  0  0  0  0  0  0  0
    0.0000    1.3736    0.0000 P   0  0  0  0  0  0  0  0  0  0  0  0
    1.4289    2.1986    0.0000 Na  0  0  0  0  0 15  0  0  0  0  0  0
   -1.4289    0.5486    0.0000 Na  0  0  0  0  0 15  0  0  0  0  0  0
  3  1  1  0
  3  2  1  0
  4  1  1  0
  5  3  1  0
  9  2  1  0
 10  6  1  0
 10  7  1  0
 10  8  2  0
 10  9  1  0
M  CHG  4   6  -1   7  -1  11   1  12   1
M  END
>  <DATABASE_ID>  (1) 
DB09561

>  <DATABASE_NAME>  (1) 
drugbank

>  <SMILES>  (1) 
[Na+].[Na+].OCC(O)COP([O-])([O-])=O

>  <INCHI_IDENTIFIER>  (1) 
InChI=1S/C3H9O6P.2Na/c4-1-3(5)2-9-10(6,7)8;;/h3-5H,1-2H2,(H2,6,7,8);;/q;2*+1/p-2

>  <INCHI_KEY>  (1) 
GEKBIENFFVFKRG-UHFFFAOYSA-L

>  <FORMULA>  (1) 
C3H7Na2O6P

>  <MOLECULAR_WEIGHT>  (1) 
216.036

>  <EXACT_MASS>  (1) 
215.9775635

>  <JCHEM_ACCEPTOR_COUNT>  (1) 
5

>  <JCHEM_ATOM_COUNT>  (1) 
19

>  <JCHEM_AVERAGE_POLARIZABILITY>  (1) 
12.872744891560984

>  <JCHEM_BIOAVAILABILITY>  (1) 
1

>  <JCHEM_DONOR_COUNT>  (1) 
2

>  <JCHEM_FORMAL_CHARGE>  (1) 
0

>  <JCHEM_GHOSE_FILTER>  (1) 
0

>  <JCHEM_IUPAC>  (1) 
disodium 3-(phosphonooxy)propane-1,2-diol

>  <ALOGPS_LOGP>  (1) 
-1.37

>  <JCHEM_LOGP>  (1) 
-1.9625800539999998

>  <ALOGPS_LOGS>  (1) 
-0.42

>  <JCHEM_MDDR_LIKE_RULE>  (1) 
0

>  <JCHEM_NUMBER_OF_RINGS>  (1) 
0

>  <JCHEM_PHYSIOLOGICAL_CHARGE>  (1) 
-2

>  <JCHEM_PKA>  (1) 
6.533552281214722

>  <JCHEM_PKA_STRONGEST_ACIDIC>  (1) 
1.5077547010974532

>  <JCHEM_PKA_STRONGEST_BASIC>  (1) 
-2.968964717967575

>  <JCHEM_POLAR_SURFACE_AREA>  (1) 
112.88000000000001

>  <JCHEM_REFRACTIVITY>  (1) 
29.145600000000005

>  <JCHEM_ROTATABLE_BOND_COUNT>  (1) 
4

>  <JCHEM_RULE_OF_FIVE>  (1) 
1

>  <ALOGPS_SOLUBILITY>  (1) 
8.15e+01 g/l

>  <JCHEM_TRADITIONAL_IUPAC>  (1) 
disodium 3-(phosphonooxy)propane-1,2-diol

>  <JCHEM_VEBER_RULE>  (1) 
0

>  <DRUGBANK_ID>  (1) 
DB09561

>  <SECONDARY_ACCESSION_NUMBERS>  (1) 
DBSALT001586

>  <DRUG_GROUPS>  (1) 
approved

>  <GENERIC_NAME>  (1) 
Sodium glycerophosphate

>  <SYNONYMS>  (1) 
Disodium glycerol phosphate; Sodium glycerophosphate; Sodium glycerophosphate anhydrous

>  <PRODUCTS>  (1) 
Glycophos; Hemarexin Liquid and Drinkable Ampoules; Kabiven; Olimel 3.3% E; Olimel 4.4% E; Olimel 5.7% E; Olimel 7.6% E; Perikabiven; Periolimel 2.5% E; Smofkabiven; Smofkabiven Extra Nitrogen; Smofkabiven Peripheral; Vitamin and Mineral Supplement - Liq

>  <INTERNATIONAL_BRANDS>  (1) 
Glycophos

>  <SALTS>  (1) 
Sodium glycerophosphate hydrate

$$$$
