
     RDKit          2D

 37 40  0  0  0  0  0  0  0  0999 V2000
   -2.1432    1.4290    0.0000 C   0  0  0  0  0  0  0  0  0  0  0  0
   -2.8577    1.0165    0.0000 C   0  0  0  0  0  0  0  0  0  0  0  0
   -2.8577    0.1915    0.0000 C   0  0  0  0  0  0  0  0  0  0  0  0
   -2.1433   -0.2209    0.0000 C   0  0  0  0  0  0  0  0  0  0  0  0
   -1.4289    0.1915    0.0000 C   0  0  0  0  0  0  0  0  0  0  0  0
   -1.4289    1.0165    0.0000 C   0  0  0  0  0  0  0  0  0  0  0  0
   -0.7143    1.4290    0.0000 C   0  0  0  0  0  0  0  0  0  0  0  0
   -0.7144   -0.2209    0.0000 C   0  0  0  0  0  0  0  0  0  0  0  0
    0.0000    0.1914    0.0000 C   0  0  0  0  0  0  0  0  0  0  0  0
    0.0000    1.0164    0.0000 C   0  0  0  0  0  0  0  0  0  0  0  0
    0.7145    1.4289    0.0000 C   0  0  0  0  0  0  0  0  0  0  0  0
    0.7144   -0.2210    0.0000 C   0  0  0  0  0  0  0  0  0  0  0  0
    1.4289    0.2209    0.0000 C   0  0  0  0  0  0  0  0  0  0  0  0
    1.4289    1.0459    0.0000 C   0  0  0  0  0  0  0  0  0  0  0  0
    2.1435    1.4584    0.0000 C   0  0  0  0  0  0  0  0  0  0  0  0
    2.1434   -0.1916    0.0000 C   0  0  0  0  0  0  0  0  0  0  0  0
    2.8577    0.2208    0.0000 C   0  0  0  0  0  0  0  0  0  0  0  0
    2.8577    1.0458    0.0000 C   0  0  0  0  0  0  0  0  0  0  0  0
   -2.1432    2.2540    0.0000 O   0  0  0  0  0  0  0  0  0  0  0  0
   -0.7143    2.2540    0.0000 O   0  0  0  0  0  0  0  0  0  0  0  0
    0.7145    2.2539    0.0000 O   0  0  0  0  0  0  0  0  0  0  0  0
    2.1435    2.2834    0.0000 O   0  0  0  0  0  0  0  0  0  0  0  0
    3.5723    1.4583    0.0000 C   0  0  0  0  0  0  0  0  0  0  0  0
    3.5723    2.2833    0.0000 O   0  0  0  0  0  0  0  0  0  0  0  0
    4.2867    1.0458    0.0000 N   0  0  0  0  0  0  0  0  0  0  0  0
    3.5722   -0.1916    0.0000 O   0  0  0  0  0  0  0  0  0  0  0  0
    2.1434   -1.0166    0.0000 N   0  0  0  0  0  0  0  0  0  0  0  0
    2.8577   -1.4292    0.0000 C   0  0  0  0  0  0  0  0  0  0  0  0
    1.4289   -1.4291    0.0000 C   0  0  0  0  0  0  0  0  0  0  0  0
    1.4289   -0.6040    0.0000 H   0  0  0  0  0  0  0  0  0  0  0  0
    0.0000   -0.6335    0.0000 H   0  0  0  0  0  0  0  0  0  0  0  0
   -2.1433   -1.0459    0.0000 C   0  0  0  0  0  0  0  0  0  0  0  0
   -2.8577   -1.4584    0.0000 N   0  0  0  0  0  0  0  0  0  0  0  0
   -3.5722   -1.0459    0.0000 O   0  0  0  0  0  0  0  0  0  0  0  0
   -4.2867   -1.4583    0.0000 C   0  0  0  0  0  0  0  0  0  0  0  0
   -2.8577   -2.2834    0.0000 C   0  0  0  0  0  0  0  0  0  0  0  0
    1.4290    1.8708    0.0000 O   0  0  0  0  0  0  0  0  0  0  0  0
  1  2  2  0
  2  3  1  0
  3  4  2  0
  4  5  1  0
  1  6  1  0
  7  6  1  0
  6  5  2  0
  5  8  1  0
  8  9  1  0
  7 10  1  0
 11 10  2  0
 10  9  1  0
  9 12  1  0
 12 13  1  0
 11 14  1  0
 15 14  1  0
 14 13  1  0
 13 16  1  0
 16 17  1  0
 17 18  2  0
 15 18  1  0
  1 19  1  0
  7 20  2  0
 11 21  1  0
 15 22  2  0
 18 23  1  0
 23 24  2  0
 23 25  1  0
 17 26  1  0
 16 27  1  1
 27 28  1  0
 27 29  1  0
 13 30  1  1
  9 31  1  1
  4 32  1  0
 32 33  1  0
 33 34  1  0
 34 35  1  0
 33 36  1  0
 14 37  1  1
M  END
>  <DATABASE_ID>  (1) 
DB12035

>  <DATABASE_NAME>  (1) 
drugbank

>  <SMILES>  (1) 
[H][C@@]12CC3=C(CN(C)OC)C=CC(O)=C3C(=O)C1=C(O)[C@]1(O)C(=O)C(C(N)=O)=C(O)[C@@H](N(C)C)[C@]1([H])C2

>  <INCHI_IDENTIFIER>  (1) 
InChI=1S/C24H29N3O8/c1-26(2)18-13-8-11-7-12-10(9-27(3)35-4)5-6-14(28)16(12)19(29)15(11)21(31)24(13,34)22(32)17(20(18)30)23(25)33/h5-6,11,13,18,28,30-31,34H,7-9H2,1-4H3,(H2,25,33)/t11-,13-,18-,24-/m0/s1

>  <INCHI_KEY>  (1) 
PQJQFLNBMSCUSH-SBAJWEJLSA-N

>  <FORMULA>  (1) 
C24H29N3O8

>  <MOLECULAR_WEIGHT>  (1) 
487.509

>  <EXACT_MASS>  (1) 
487.195464906

>  <JCHEM_ACCEPTOR_COUNT>  (1) 
10

>  <JCHEM_ATOM_COUNT>  (1) 
64

>  <JCHEM_AVERAGE_NEUTRAL_MICROSPECIES_CHARGE>  (1) 
-0.2924061506730845

>  <JCHEM_AVERAGE_POLARIZABILITY>  (1) 
49.313123596887635

>  <JCHEM_BIOAVAILABILITY>  (1) 
1

>  <JCHEM_DONOR_COUNT>  (1) 
5

>  <JCHEM_FORMAL_CHARGE>  (1) 
0

>  <JCHEM_GHOSE_FILTER>  (1) 
0

>  <JCHEM_IUPAC>  (1) 
(4S,4aS,5aR,12aS)-4-(dimethylamino)-3,10,12,12a-tetrahydroxy-7-{[methoxy(methyl)amino]methyl}-1,11-dioxo-1,4,4a,5,5a,6,11,12a-octahydrotetracene-2-carboxamide

>  <ALOGPS_LOGP>  (1) 
-0.17

>  <JCHEM_LOGP>  (1) 
-3.0651520566519834

>  <ALOGPS_LOGS>  (1) 
-2.39

>  <JCHEM_MDDR_LIKE_RULE>  (1) 
0

>  <JCHEM_NEUTRAL_CHARGE>  (1) 
0

>  <JCHEM_NUMBER_OF_RINGS>  (1) 
4

>  <JCHEM_PHYSIOLOGICAL_CHARGE>  (1) 
0

>  <JCHEM_PKA>  (1) 
7.445707368481895

>  <JCHEM_PKA_STRONGEST_ACIDIC>  (1) 
3.305013701653303

>  <JCHEM_PKA_STRONGEST_BASIC>  (1) 
8.68717913071451

>  <JCHEM_POLAR_SURFACE_AREA>  (1) 
173.85999999999999

>  <JCHEM_REFRACTIVITY>  (1) 
127.60649999999994

>  <JCHEM_ROTATABLE_BOND_COUNT>  (1) 
5

>  <JCHEM_RULE_OF_FIVE>  (1) 
1

>  <ALOGPS_SOLUBILITY>  (1) 
2.01e+00 g/l

>  <JCHEM_TRADITIONAL_IUPAC>  (1) 
5-(2,4-dihydroxy-5-isopropylphenyl)-4-(1-methylindol-5-yl)-2H-1,2,4-triazol-3-one

>  <JCHEM_VEBER_RULE>  (1) 
0

>  <DRUGBANK_ID>  (1) 
DB12035

>  <DRUG_GROUPS>  (1) 
approved

>  <GENERIC_NAME>  (1) 
Sarecycline

>  <SYNONYMS>  (1) 
Sareciclina; Sarécycline; Sarecycline; Sarecyclinum

>  <PRODUCTS>  (1) 
Seysara

>  <SALTS>  (1) 
Sarecycline hydrochloride

$$$$
