
     RDKit          2D

 29 32  0  0  1  0  0  0  0  0999 V2000
   -0.5914   -2.3573    0.0000 C   0  0  0  0  0  0  0  0  0  0  0  0
   -0.9226   -1.6017    0.0000 C   0  0  0  0  0  0  0  0  0  0  0  0
   -0.4338   -0.9371    0.0000 N   0  0  0  0  0  0  0  0  0  0  0  0
    0.3862   -1.0281    0.0000 C   0  0  0  0  0  0  0  0  0  0  0  0
    0.8750   -0.3635    0.0000 C   0  0  0  0  0  0  0  0  0  0  0  0
    1.6950   -0.4546    0.0000 C   0  0  0  0  0  0  0  0  0  0  0  0
    2.0261   -1.2102    0.0000 C   0  0  0  0  0  0  0  0  0  0  0  0
    2.8505   -1.1780    0.0000 C   0  0  0  0  0  0  0  0  0  0  0  0
    3.2778   -0.4722    0.0000 N   0  0  0  0  0  0  0  0  0  0  0  0
    4.0810   -0.6605    0.0000 C   0  0  0  0  0  0  0  0  0  0  0  0
    4.1501   -1.4826    0.0000 C   0  0  0  0  0  0  0  0  0  0  0  0
    3.3897   -1.8024    0.0000 N   0  0  0  0  0  0  0  0  0  0  0  0
    3.2376   -2.6133    0.0000 C   0  0  0  0  0  0  0  0  0  0  0  0
    2.5088   -3.0000    0.0000 C   0  0  0  0  0  0  0  0  0  0  0  0
    1.7521   -2.6713    0.0000 O   0  0  0  0  0  0  0  0  0  0  0  0
    1.5373   -1.8748    0.0000 C   0  0  0  0  0  0  0  0  0  0  0  0
    0.7173   -1.7837    0.0000 C   0  0  0  0  0  0  0  0  0  0  0  0
    4.7054   -0.1213    0.0000 N   0  0  0  0  0  0  0  0  0  0  0  0
    4.6363    0.7008    0.0000 C   0  0  0  0  0  0  0  0  0  0  0  0
    5.3968    1.0206    0.0000 C   0  0  0  0  0  0  0  0  0  0  0  0
    5.9359    0.3961    0.0000 O   0  0  0  0  0  0  0  0  0  0  0  0
    5.5087   -0.3096    0.0000 C   0  0  0  0  0  0  0  0  0  0  0  0
    5.8285   -1.0701    0.0000 O   0  0  0  0  0  0  0  0  0  0  0  0
    3.9305    1.1280    0.0000 C   0  0  0  0  0  0  0  0  0  0  0  0
    3.9477    1.9528    0.0000 F   0  0  0  0  0  0  0  0  0  0  0  0
    3.2076    0.7305    0.0000 F   0  0  0  0  0  0  0  0  0  0  0  0
   -1.7425   -1.5107    0.0000 C   0  0  0  0  0  0  0  0  0  0  0  0
   -2.2314   -2.1753    0.0000 N   0  0  0  0  0  0  0  0  0  0  0  0
   -2.0737   -0.7550    0.0000 O   0  0  0  0  0  0  0  0  0  0  0  0
  2  1  1  1
  2  3  1  0
  3  4  1  0
  4  5  2  0
  5  6  1  0
  6  7  2  0
  7  8  1  0
  8  9  2  0
  9 10  1  0
 10 11  2  0
 11 12  1  0
  8 12  1  0
 12 13  1  0
 13 14  1  0
 14 15  1  0
 15 16  1  0
  7 16  1  0
 16 17  2  0
  4 17  1  0
 10 18  1  0
 19 18  1  0
 19 20  1  0
 20 21  1  0
 21 22  1  0
 18 22  1  0
 22 23  2  0
 19 24  1  6
 24 25  1  0
 24 26  1  0
  2 27  1  0
 27 28  1  0
 27 29  2  0
M  END
>  <DATABASE_ID>  (1) 
DB15275

>  <DATABASE_NAME>  (1) 
drugbank

>  <SMILES>  (1) 
C[C@H](NC1=CC=C2C3=NC(=CN3CCOC2=C1)N1[C@@H](COC1=O)C(F)F)C(N)=O

>  <INCHI_IDENTIFIER>  (1) 
InChI=1S/C18H19F2N5O4/c1-9(16(21)26)22-10-2-3-11-13(6-10)28-5-4-24-7-14(23-17(11)24)25-12(15(19)20)8-29-18(25)27/h2-3,6-7,9,12,15,22H,4-5,8H2,1H3,(H2,21,26)/t9-,12-/m0/s1

>  <INCHI_KEY>  (1) 
SGEUNORSOZVTOL-CABZTGNLSA-N

>  <FORMULA>  (1) 
C18H19F2N5O4

>  <MOLECULAR_WEIGHT>  (1) 
407.378

>  <EXACT_MASS>  (1) 
407.140510438

>  <JCHEM_ACCEPTOR_COUNT>  (1) 
6

>  <JCHEM_ATOM_COUNT>  (1) 
48

>  <JCHEM_AVERAGE_POLARIZABILITY>  (1) 
39.18385265770424

>  <JCHEM_BIOAVAILABILITY>  (1) 
1

>  <JCHEM_DONOR_COUNT>  (1) 
2

>  <JCHEM_FORMAL_CHARGE>  (1) 
0

>  <JCHEM_GHOSE_FILTER>  (1) 
1

>  <JCHEM_IUPAC>  (1) 
(2S)-2-({4-[(4S)-4-(difluoromethyl)-2-oxo-1,3-oxazolidin-3-yl]-9-oxa-3,6-diazatricyclo[8.4.0.0^{2,6}]tetradeca-1(14),2,4,10,12-pentaen-12-yl}amino)propanamide

>  <ALOGPS_LOGP>  (1) 
1.49

>  <JCHEM_LOGP>  (1) 
1.1567119363333327

>  <ALOGPS_LOGS>  (1) 
-2.90

>  <JCHEM_MDDR_LIKE_RULE>  (1) 
0

>  <JCHEM_NUMBER_OF_RINGS>  (1) 
4

>  <JCHEM_PHYSIOLOGICAL_CHARGE>  (1) 
0

>  <JCHEM_PKA>  (1) 
15.610307091674054

>  <JCHEM_PKA_STRONGEST_ACIDIC>  (1) 
15.189092605200312

>  <JCHEM_PKA_STRONGEST_BASIC>  (1) 
3.321834990832576

>  <JCHEM_POLAR_SURFACE_AREA>  (1) 
111.71000000000001

>  <JCHEM_REFRACTIVITY>  (1) 
108.27739999999999

>  <JCHEM_ROTATABLE_BOND_COUNT>  (1) 
5

>  <JCHEM_RULE_OF_FIVE>  (1) 
1

>  <ALOGPS_SOLUBILITY>  (1) 
5.17e-01 g/l

>  <JCHEM_TRADITIONAL_IUPAC>  (1) 
(2R)-14-fluoro-2-methyl-6,9,10,19-tetraazapentacyclo[14.2.1.0^{2,6}.0^{8,18}.0^{12,17}]nonadeca-1(18),8,12(17),13,15-pentaen-11-one

>  <JCHEM_VEBER_RULE>  (1) 
0

>  <DRUGBANK_ID>  (1) 
DB15275

>  <DRUG_GROUPS>  (1) 
approved; investigational

>  <GENERIC_NAME>  (1) 
Inavolisib

>  <SYNONYMS>  (1) 
(2S)-2-((2-((4S)-4-(difluoromethyl)-2-oxo-3-oxazolidinyl)-5,6-dihydroimidazo(1,2-D)(1,4)benzoxazepin-9-yl)amino)propanamide; Inavolisib; propanamide, 2-((2-((4S)-4-(difluoromethyl)-2-oxo-3-oxazolidinyl)-5,6-dihydroimidazo(1,2-D)(1,4)benzoxazepin-9-yl)amino)-, (2S)-

>  <PRODUCTS>  (1) 
Itovebi

$$$$
