
     RDKit          2D

  5  0  0  0  0  0  0  0  0  0999 V2000
   -2.3571    0.8250    0.0000 O   0  0  0  0  0  0  0  0  0  0  0  0
    0.0000    0.8250    0.0000 O   0  0  0  0  0  0  0  0  0  0  0  0
    2.3571    0.8250    0.0000 O   0  0  0  0  0  0  0  0  0  0  0  0
   -2.3571   -0.8250    0.0000 O   0  0  0  0  0  0  0  0  0  0  0  0
    0.5892   -0.8250    0.0000 Tc  0  0  0  0  0 15  0  0  0  0  0  0
M  CHG  1   5  -1
M  ISO  1   5  98
M  END
>  <DATABASE_ID>  (1) 
DB09314

>  <DATABASE_NAME>  (1) 
drugbank

>  <SMILES>  (1) 
O.O.O.O.[98Tc-]

>  <INCHI_IDENTIFIER>  (1) 
InChI=1S/4H2O.Tc/h4*1H2;/q;;;;-1/i;;;;1+1

>  <INCHI_KEY>  (1) 
ZTFPRNKAHXDALS-RCUQKECRSA-N

>  <FORMULA>  (1) 
H8O4Tc

>  <MOLECULAR_WEIGHT>  (1) 
169.968

>  <EXACT_MASS>  (1) 
169.95002301

>  <JCHEM_ACCEPTOR_COUNT>  (1) 
1

>  <JCHEM_ATOM_COUNT>  (1) 
13

>  <JCHEM_AVERAGE_POLARIZABILITY>  (1) 
1.5082203897359623

>  <JCHEM_BIOAVAILABILITY>  (1) 
1

>  <JCHEM_DONOR_COUNT>  (1) 
1

>  <JCHEM_FORMAL_CHARGE>  (1) 
-1

>  <JCHEM_GHOSE_FILTER>  (1) 
0

>  <JCHEM_IUPAC>  (1) 
tetrahydrate (98Tc)technetiumuide

>  <ALOGPS_LOGP>  (1) 
-1.36

>  <JCHEM_LOGP>  (1) 
-0.6519999999999999

>  <ALOGPS_LOGS>  (1) 
0.61

>  <JCHEM_MDDR_LIKE_RULE>  (1) 
0

>  <JCHEM_NUMBER_OF_RINGS>  (1) 
0

>  <JCHEM_PHYSIOLOGICAL_CHARGE>  (1) 
0

>  <JCHEM_PKA_STRONGEST_ACIDIC>  (1) 
15.7

>  <JCHEM_PKA_STRONGEST_BASIC>  (1) 
-1.7999999999999998

>  <JCHEM_POLAR_SURFACE_AREA>  (1) 
25.3

>  <JCHEM_REFRACTIVITY>  (1) 
3.7

>  <JCHEM_ROTATABLE_BOND_COUNT>  (1) 
0

>  <JCHEM_RULE_OF_FIVE>  (1) 
1

>  <ALOGPS_SOLUBILITY>  (1) 
1.37e+02 g/l

>  <JCHEM_TRADITIONAL_IUPAC>  (1) 
tetrahydrate (98Tc)technetiumuide

>  <JCHEM_VEBER_RULE>  (1) 
1

>  <DRUGBANK_ID>  (1) 
DB09314

>  <SECONDARY_ACCESSION_NUMBERS>  (1) 
DB13043

>  <DRUG_GROUPS>  (1) 
approved; investigational

>  <GENERIC_NAME>  (1) 
Technetium Tc-99m pertechnetate

>  <SYNONYMS>  (1) 
(99Tc)pertechnetate; CPERT; GPERT; Pertechnetate-99Tc; Technetium (99mTc) Pertechnetate; Technetium Tc 99m Pertechnetate; Technetium Tc-99m pertechnetate

>  <PRODUCTS>  (1) 
Drytec (Technetium Tc99m Generator); RadioGenix System; Sodium Pertechnetate 99mtc Injection; TechneLite; Ultra-TechneKow DTE; Ultra-Technekow V4

>  <SALTS>  (1) 
Technetium Tc-99m sodium pertechnetate

$$$$
