
     RDKit          2D

 38 42  0  0  1  0  0  0  0  0999 V2000
    3.1744    0.6851    0.0000 H   0  0  0  0  0  0  0  0  0  0  0  0
    3.6631    0.0204    0.0000 C   0  0  0  0  0  0  0  0  0  0  0  0
    4.2793   -0.5282    0.0000 C   0  0  0  0  0  0  0  0  0  0  0  0
    4.9914   -0.1117    0.0000 C   0  0  0  0  0  0  0  0  0  0  0  0
    5.8124   -0.1933    0.0000 O   0  0  0  0  0  0  0  0  0  0  0  0
    6.1437    0.5623    0.0000 C   0  0  0  0  0  0  0  0  0  0  0  0
    6.8605    0.1538    0.0000 C   0  0  0  0  0  0  0  0  0  0  0  0
    6.6248    1.2324    0.0000 C   0  0  0  0  0  0  0  0  0  0  0  0
    5.5275    1.1108    0.0000 O   0  0  0  0  0  0  0  0  0  0  0  0
    4.8154    0.6943    0.0000 C   0  0  0  0  0  0  0  0  0  0  0  0
    4.7546    1.4827    0.0000 C   0  0  0  0  0  0  0  0  0  0  0  0
    3.8532    1.7508    0.0000 O   0  0  0  0  0  0  0  0  0  0  0  0
    5.2493    2.0558    0.0000 C   0  0  0  0  0  0  0  0  0  0  0  0
    5.0732    2.8618    0.0000 O   0  0  0  0  0  0  0  0  0  0  0  0
    5.6832    3.4173    0.0000 C   0  0  0  0  0  0  0  0  0  0  0  0
    6.4692    3.1668    0.0000 O   0  0  0  0  0  0  0  0  0  0  0  0
    5.5071    4.2233    0.0000 C   0  0  0  0  0  0  0  0  0  0  0  0
    6.1171    4.7787    0.0000 C   0  0  0  0  0  0  0  0  0  0  0  0
    3.9944    0.7759    0.0000 C   0  0  0  0  0  0  0  0  0  0  0  0
    4.4029    1.4927    0.0000 C   0  0  0  0  0  0  0  0  0  0  0  0
    3.5057    1.4406    0.0000 C   0  0  0  0  0  0  0  0  0  0  0  0
    2.6857    1.3498    0.0000 C   0  0  0  0  0  0  0  0  0  0  0  0
    2.1971    2.0145    0.0000 O   0  0  0  0  0  0  0  0  0  0  0  0
    2.3544    0.5942    0.0000 C   0  0  0  0  0  0  0  0  0  0  0  0
    1.9186    1.6049    0.0000 F   0  0  0  0  0  0  0  0  0  0  0  0
    2.8431   -0.0705    0.0000 C   0  0  0  0  0  0  0  0  0  0  0  0
    3.3318   -0.7352    0.0000 H   0  0  0  0  0  0  0  0  0  0  0  0
    2.5118   -0.8260    0.0000 C   0  0  0  0  0  0  0  0  0  0  0  0
    1.6918   -0.9169    0.0000 C   0  0  0  0  0  0  0  0  0  0  0  0
    1.3605   -1.6724    0.0000 F   0  0  0  0  0  0  0  0  0  0  0  0
    1.2031   -0.2522    0.0000 C   0  0  0  0  0  0  0  0  0  0  0  0
    0.3832   -0.3431    0.0000 C   0  0  0  0  0  0  0  0  0  0  0  0
   -0.1055    0.3216    0.0000 C   0  0  0  0  0  0  0  0  0  0  0  0
   -0.9255    0.2308    0.0000 O   0  0  0  0  0  0  0  0  0  0  0  0
    0.2258    1.0772    0.0000 C   0  0  0  0  0  0  0  0  0  0  0  0
    1.0458    1.1681    0.0000 C   0  0  0  0  0  0  0  0  0  0  0  0
    1.5345    0.5034    0.0000 C   0  0  0  0  0  0  0  0  0  0  0  0
    1.8658    1.2589    0.0000 C   0  0  0  0  0  0  0  0  0  0  0  0
  2  1  1  6
  2  3  1  0
  4  3  1  6
  4  5  1  0
  5  6  1  0
  6  7  1  0
  6  8  1  0
  6  9  1  0
 10  9  1  0
 10  4  1  0
 10 11  1  1
 11 12  2  0
 11 13  1  0
 13 14  1  0
 14 15  1  0
 15 16  2  0
 15 17  1  0
 17 18  1  0
 19 10  1  0
  2 19  1  0
 19 20  1  1
 19 21  1  0
 22 21  1  0
 22 23  1  1
 24 22  1  0
 24 25  1  6
 24 26  1  0
 26  2  1  0
 26 27  1  1
 26 28  1  0
 29 28  1  0
 29 30  1  6
 29 31  1  0
 31 32  2  0
 32 33  1  0
 33 34  2  0
 33 35  1  0
 35 36  2  0
 37 36  1  0
 24 37  1  0
 37 31  1  0
 37 38  1  1
M  END
>  <DATABASE_ID>  (1) 
DB18737

>  <DATABASE_NAME>  (1) 
drugbank

>  <SMILES>  (1) 
[H][C@@]12C[C@H]3OC(C)(C)O[C@@]3(C(=O)COC(=O)CC)[C@@]1(C)C[C@H](O)[C@@]1(F)[C@@]2([H])C[C@H](F)C2=CC(=O)C=C[C@]12C

>  <INCHI_IDENTIFIER>  (1) 
InChI=1S/C27H34F2O7/c1-6-22(33)34-13-20(32)27-21(35-23(2,3)36-27)11-15-16-10-18(28)17-9-14(30)7-8-24(17,4)26(16,29)19(31)12-25(15,27)5/h7-9,15-16,18-19,21,31H,6,10-13H2,1-5H3/t15-,16+,18-,19-,21+,24+,25-,26+,27+/m0/s1

>  <INCHI_KEY>  (1) 
UBOIMZIXNXGQOH-RTWVSBIPSA-N

>  <FORMULA>  (1) 
C27H34F2O7

>  <MOLECULAR_WEIGHT>  (1) 
508.559

>  <EXACT_MASS>  (1) 
508.227259761

>  <JCHEM_ACCEPTOR_COUNT>  (1) 
6

>  <JCHEM_ATOM_COUNT>  (1) 
70

>  <JCHEM_AVERAGE_NEUTRAL_MICROSPECIES_CHARGE>  (1) 
0.00047913837016342513

>  <JCHEM_AVERAGE_POLARIZABILITY>  (1) 
50.91199873124675

>  <JCHEM_BIOAVAILABILITY>  (1) 
1

>  <JCHEM_DONOR_COUNT>  (1) 
1

>  <JCHEM_FORMAL_CHARGE>  (1) 
0

>  <JCHEM_GHOSE_FILTER>  (1) 
0

>  <JCHEM_IUPAC>  (1) 
2-[(1S,2S,4R,8S,9S,11S,12R,13S,19S)-12,19-difluoro-11-hydroxy-6,6,9,13-tetramethyl-16-oxo-5,7-dioxapentacyclo[10.8.0.0^{2,9}.0^{4,8}.0^{13,18}]icosa-14,17-dien-8-yl]-2-oxoethyl propanoate

>  <JCHEM_LOGP>  (1) 
2.7460598263333322

>  <JCHEM_MDDR_LIKE_RULE>  (1) 
0

>  <JCHEM_NEUTRAL_CHARGE>  (1) 
0

>  <JCHEM_NUMBER_OF_RINGS>  (1) 
5

>  <JCHEM_PHYSIOLOGICAL_CHARGE>  (1) 
0

>  <JCHEM_PKA>  (1) 
14.723413572532728

>  <JCHEM_PKA_STRONGEST_ACIDIC>  (1) 
13.60001863921921

>  <JCHEM_PKA_STRONGEST_BASIC>  (1) 
-3.3935718211666432

>  <JCHEM_POLAR_SURFACE_AREA>  (1) 
99.13

>  <JCHEM_REFRACTIVITY>  (1) 
125.19160000000001

>  <JCHEM_ROTATABLE_BOND_COUNT>  (1) 
5

>  <JCHEM_RULE_OF_FIVE>  (1) 
0

>  <JCHEM_TRADITIONAL_IUPAC>  (1) 
2-[(1S,2S,4R,8S,9S,11S,12R,13S,19S)-12,19-difluoro-11-hydroxy-6,6,9,13-tetramethyl-16-oxo-5,7-dioxapentacyclo[10.8.0.0^{2,9}.0^{4,8}.0^{13,18}]icosa-14,17-dien-8-yl]-2-oxoethyl propanoate

>  <JCHEM_VEBER_RULE>  (1) 
0

>  <DRUGBANK_ID>  (1) 
DB18737

>  <DRUG_GROUPS>  (1) 
approved; withdrawn

>  <GENERIC_NAME>  (1) 
Procinonide

>  <SYNONYMS>  (1) 
6.alpha.,9-difluoro-11.beta.,16.alpha.,17,21-tetrahydroxypregna-1,4-diene-3,20-dione cyclic 16,17-acetal with acetone, 21-propionate; Pregna-1,4-diene-3,20-dione, 6,9-difluoro-11-hydroxy-16,17-((1-methylethylidene)bis(oxy))-21-(1-oxopropoxy)-, (6.alpha.,11.beta.,16.alpha)-

>  <PRODUCTS>  (1) 
Trisyn

$$$$
