
     RDKit          2D

 18 19  0  0  0  0  0  0  0  0999 V2000
   -4.3973   -1.2374    0.0000 C   0  0  0  0  0  0  0  0  0  0  0  0
   -3.5722   -1.2374    0.0000 C   0  0  0  0  0  0  0  0  0  0  0  0
   -3.9848   -1.9519    0.0000 C   0  0  0  0  0  0  0  0  0  0  0  0
    0.0000    0.0000    0.0000 C   0  0  0  0  0  0  0  0  0  0  0  0
    0.7145    0.4125    0.0000 C   0  0  0  0  0  0  0  0  0  0  0  0
   -2.8579   -0.8250    0.0000 C   0  0  0  0  0  0  0  0  0  0  0  0
   -0.7144    0.4125    0.0000 O   0  0  0  0  0  0  0  0  0  0  0  0
    1.4290    0.0000    0.0000 O   0  0  0  0  0  0  0  0  0  0  0  0
   -2.8579    0.0000    0.0000 C   0  0  0  0  0  0  0  0  0  0  0  0
   -2.1434   -1.2374    0.0000 C   0  0  0  0  0  0  0  0  0  0  0  0
   -1.4289    0.0000    0.0000 C   0  0  0  0  0  0  0  0  0  0  0  0
    0.7145    1.2374    0.0000 O   0  0  0  0  0  0  0  0  0  0  0  0
   -1.4289   -0.8250    0.0000 C   0  0  0  0  0  0  0  0  0  0  0  0
   -2.1434    0.4125    0.0000 C   0  0  0  0  0  0  0  0  0  0  0  0
   -4.3973   -2.6664    0.0000 Cl  0  0  0  0  0  0  0  0  0  0  0  0
   -3.5722   -2.6664    0.0000 Cl  0  0  0  0  0  0  0  0  0  0  0  0
   -0.4125   -0.7144    0.0000 C   0  0  0  0  0  0  0  0  0  0  0  0
    0.4125   -0.7144    0.0000 C   0  0  0  0  0  0  0  0  0  0  0  0
  2  1  1  0
  3  1  1  0
  6  2  1  0
  3  2  1  0
  7  4  1  0
  5  4  1  0
  8  5  1  0
 12  5  2  0
  9  6  2  0
 10  6  1  0
 11  7  1  0
 14  9  1  0
 13 10  2  0
 13 11  1  0
 14 11  2  0
  3 15  1  0
  3 16  1  0
  4 17  1  0
  4 18  1  0
M  END
>  <DATABASE_ID>  (1) 
DB09064

>  <DATABASE_NAME>  (1) 
drugbank

>  <SMILES>  (1) 
CC(C)(OC1=CC=C(C=C1)C1CC1(Cl)Cl)C(O)=O

>  <INCHI_IDENTIFIER>  (1) 
InChI=1S/C13H14Cl2O3/c1-12(2,11(16)17)18-9-5-3-8(4-6-9)10-7-13(10,14)15/h3-6,10H,7H2,1-2H3,(H,16,17)

>  <INCHI_KEY>  (1) 
KPSRODZRAIWAKH-UHFFFAOYSA-N

>  <FORMULA>  (1) 
C13H14Cl2O3

>  <MOLECULAR_WEIGHT>  (1) 
289.15

>  <EXACT_MASS>  (1) 
288.0319997

>  <JCHEM_ACCEPTOR_COUNT>  (1) 
3

>  <JCHEM_ATOM_COUNT>  (1) 
32

>  <JCHEM_AVERAGE_POLARIZABILITY>  (1) 
28.079393356983008

>  <JCHEM_BIOAVAILABILITY>  (1) 
1

>  <JCHEM_DONOR_COUNT>  (1) 
1

>  <JCHEM_FORMAL_CHARGE>  (1) 
0

>  <JCHEM_GHOSE_FILTER>  (1) 
1

>  <JCHEM_IUPAC>  (1) 
2-[4-(2,2-dichlorocyclopropyl)phenoxy]-2-methylpropanoic acid

>  <ALOGPS_LOGP>  (1) 
3.97

>  <JCHEM_LOGP>  (1) 
3.6223862579999997

>  <ALOGPS_LOGS>  (1) 
-4.57

>  <JCHEM_MDDR_LIKE_RULE>  (1) 
0

>  <JCHEM_NUMBER_OF_RINGS>  (1) 
2

>  <JCHEM_PHYSIOLOGICAL_CHARGE>  (1) 
-1

>  <JCHEM_PKA_STRONGEST_ACIDIC>  (1) 
3.687365803229848

>  <JCHEM_PKA_STRONGEST_BASIC>  (1) 
-4.914740447164342

>  <JCHEM_POLAR_SURFACE_AREA>  (1) 
46.53

>  <JCHEM_REFRACTIVITY>  (1) 
70.50220000000002

>  <JCHEM_ROTATABLE_BOND_COUNT>  (1) 
4

>  <JCHEM_RULE_OF_FIVE>  (1) 
1

>  <ALOGPS_SOLUBILITY>  (1) 
7.79e-03 g/l

>  <JCHEM_TRADITIONAL_IUPAC>  (1) 
ciprofibrate

>  <JCHEM_VEBER_RULE>  (1) 
0

>  <DRUGBANK_ID>  (1) 
DB09064

>  <DRUG_GROUPS>  (1) 
approved; investigational; withdrawn

>  <GENERIC_NAME>  (1) 
Ciprofibrate

>  <SYNONYMS>  (1) 
Ciprofibrate; ciprofibrato

$$$$
