
     RDKit          2D

 26 29  0  0  0  0  0  0  0  0999 V2000
   -0.7078   -1.0151    0.0000 N   0  0  0  0  0  0  0  0  0  0  0  0
   -0.0132   -1.4425    0.0000 C   0  0  0  0  0  0  0  0  0  0  0  0
   -0.7078   -2.6712    0.0000 S   0  0  0  0  0  0  0  0  0  0  0  0
    0.6811   -1.0151    0.0000 C   0  0  0  0  0  0  0  0  0  0  0  0
   -1.4290   -1.4425    0.0000 C   0  0  0  0  0  0  0  0  0  0  0  0
   -0.0132   -2.2440    0.0000 C   0  0  0  0  0  0  0  0  0  0  0  0
   -1.4290   -2.2440    0.0000 C   0  0  0  0  0  0  0  0  0  0  0  0
   -0.7078   -0.2136    0.0000 C   0  0  0  0  0  0  0  0  0  0  0  0
    1.4024   -1.4425    0.0000 C   0  0  0  0  0  0  0  0  0  0  0  0
    2.1238   -1.0151    0.0000 S   0  0  0  0  0  0  0  0  0  0  0  0
   -2.1504    1.4424    0.0000 N   0  0  0  0  0  0  0  0  0  0  0  0
   -1.4290    0.2135    0.0000 C   0  0  0  0  0  0  0  0  0  0  0  0
   -1.4290    1.0151    0.0000 C   0  0  0  0  0  0  0  0  0  0  0  0
    0.6811   -2.6712    0.0000 C   0  0  0  0  0  0  0  0  0  0  0  0
    2.1238   -0.2136    0.0000 O   0  0  0  0  0  0  0  0  0  0  0  0
    1.4024   -2.2440    0.0000 C   0  0  0  0  0  0  0  0  0  0  0  0
   -2.8449    1.0151    0.0000 C   0  0  0  0  0  0  0  0  0  0  0  0
   -2.1504    2.2706    0.0000 C   0  0  0  0  0  0  0  0  0  0  0  0
   -2.1504   -1.0151    0.0000 C   0  0  0  0  0  0  0  0  0  0  0  0
    2.8449   -1.4425    0.0000 C   0  0  0  0  0  0  0  0  0  0  0  0
   -2.1504   -2.6712    0.0000 C   0  0  0  0  0  0  0  0  0  0  0  0
   -0.7078    1.4424    0.0000 C   0  0  0  0  0  0  0  0  0  0  0  0
   -1.4290    2.6712    0.0000 C   0  0  0  0  0  0  0  0  0  0  0  0
   -2.8449   -1.4425    0.0000 C   0  0  0  0  0  0  0  0  0  0  0  0
   -2.8449   -2.2440    0.0000 C   0  0  0  0  0  0  0  0  0  0  0  0
   -0.7078    2.2706    0.0000 C   0  0  0  0  0  0  0  0  0  0  0  0
  2  1  1  0
  5  1  1  0
  8  1  1  0
  4  2  1  0
  6  2  2  0
  7  3  1  0
  6  3  1  0
  9  4  2  0
  7  5  2  0
 19  5  1  0
 14  6  1  0
 21  7  1  0
 12  8  1  0
 10  9  1  0
 16  9  1  0
 15 10  2  0
 20 10  1  0
 13 11  1  0
 17 11  1  0
 18 11  1  0
 13 12  1  0
 22 13  1  0
 16 14  2  0
 23 18  1  0
 24 19  2  0
 25 21  2  0
 26 22  1  0
 26 23  1  0
 25 24  1  0
M  END
>  <DATABASE_ID>  (1) 
DB00933

>  <DATABASE_NAME>  (1) 
drugbank

>  <SMILES>  (1) 
CN1CCCCC1CCN1C2=C(SC3=C1C=C(C=C3)S(C)=O)C=CC=C2

>  <INCHI_IDENTIFIER>  (1) 
InChI=1S/C21H26N2OS2/c1-22-13-6-5-7-16(22)12-14-23-18-8-3-4-9-20(18)25-21-11-10-17(26(2)24)15-19(21)23/h3-4,8-11,15-16H,5-7,12-14H2,1-2H3

>  <INCHI_KEY>  (1) 
SLVMESMUVMCQIY-UHFFFAOYSA-N

>  <FORMULA>  (1) 
C21H26N2OS2

>  <MOLECULAR_WEIGHT>  (1) 
386.574

>  <EXACT_MASS>  (1) 
386.148654844

>  <JCHEM_ACCEPTOR_COUNT>  (1) 
3

>  <JCHEM_ATOM_COUNT>  (1) 
52

>  <JCHEM_AVERAGE_POLARIZABILITY>  (1) 
43.83188202919558

>  <JCHEM_BIOAVAILABILITY>  (1) 
1

>  <JCHEM_DONOR_COUNT>  (1) 
0

>  <JCHEM_FORMAL_CHARGE>  (1) 
0

>  <JCHEM_GHOSE_FILTER>  (1) 
1

>  <JCHEM_IUPAC>  (1) 
2-methanesulfinyl-10-[2-(1-methylpiperidin-2-yl)ethyl]-10H-phenothiazine

>  <ALOGPS_LOGP>  (1) 
3.83

>  <JCHEM_LOGP>  (1) 
3.5745034059999994

>  <ALOGPS_LOGS>  (1) 
-3.70

>  <JCHEM_MDDR_LIKE_RULE>  (1) 
0

>  <JCHEM_NUMBER_OF_RINGS>  (1) 
4

>  <JCHEM_PHYSIOLOGICAL_CHARGE>  (1) 
1

>  <JCHEM_PKA_STRONGEST_ACIDIC>  (1) 
15.859156797489963

>  <JCHEM_PKA_STRONGEST_BASIC>  (1) 
8.19134613768767

>  <JCHEM_POLAR_SURFACE_AREA>  (1) 
23.550000000000004

>  <JCHEM_REFRACTIVITY>  (1) 
115.12530000000002

>  <JCHEM_ROTATABLE_BOND_COUNT>  (1) 
4

>  <JCHEM_RULE_OF_FIVE>  (1) 
1

>  <ALOGPS_SOLUBILITY>  (1) 
7.67e-02 g/l

>  <JCHEM_TRADITIONAL_IUPAC>  (1) 
mesoridazine

>  <JCHEM_VEBER_RULE>  (1) 
1

>  <DRUGBANK_ID>  (1) 
DB00933

>  <SECONDARY_ACCESSION_NUMBERS>  (1) 
APRD00610

>  <DRUG_GROUPS>  (1) 
approved; withdrawn

>  <GENERIC_NAME>  (1) 
Mesoridazine

>  <SYNONYMS>  (1) 
10-(2-(1-Methyl-2-piperidyl)ethyl)-2-methylsulfinyl phenothiazine; 10-(2(1-Methyl-2-piperidyl)ethyl)-2-(methylsulfinyl)phenothiazine; 2-Methanesulfinyl-10-[2-(1-methyl-piperidin-2-yl)-ethyl]-10H-phenothiazine; Mesoridazina; Mesoridazine; Mesoridazinum; Thioridazine 2-sulfoxide; Thioridazine thiomethyl sulfoxide; Thioridazine-2-sulfoxide

>  <PRODUCTS>  (1) 
Serentil; Serentil Tab 10mg; Serentil Tab 25mg; Serentil Tab 50mg

>  <INTERNATIONAL_BRANDS>  (1) 
Lidanar; Lidanil

>  <SALTS>  (1) 
Mesoridazine besylate; Mesoridazine mesilate

$$$$
