
     RDKit          2D

  5  5  0  0  0  0  0  0  0  0999 V2000
   -0.4124   -0.5834    0.0000 C   0  0  0  0  0  0  0  0  0  0  0  0
   -0.9958    0.0000    0.0000 C   0  0  0  0  0  0  0  0  0  0  0  0
   -0.4124    0.5834    0.0000 O   0  0  0  0  0  0  0  0  0  0  0  0
    0.1709    0.0000    0.0000 C   0  0  0  0  0  0  0  0  0  0  0  0
    0.9958    0.0000    0.0000 O   0  0  0  0  0  0  0  0  0  0  0  0
  1  2  1  0
  1  4  1  0
  3  4  1  0
  2  3  1  0
  4  5  2  0
M  END
>  <DATABASE_ID>  (1) 
DB09348

>  <DATABASE_NAME>  (1) 
drugbank

>  <SMILES>  (1) 
O=C1CCO1

>  <INCHI_IDENTIFIER>  (1) 
InChI=1S/C3H4O2/c4-3-1-2-5-3/h1-2H2

>  <INCHI_KEY>  (1) 
VEZXCJBBBCKRPI-UHFFFAOYSA-N

>  <FORMULA>  (1) 
C3H4O2

>  <MOLECULAR_WEIGHT>  (1) 
72.063

>  <EXACT_MASS>  (1) 
72.021129369

>  <JCHEM_ACCEPTOR_COUNT>  (1) 
1

>  <JCHEM_ATOM_COUNT>  (1) 
9

>  <JCHEM_AVERAGE_POLARIZABILITY>  (1) 
6.5457433799020786

>  <JCHEM_BIOAVAILABILITY>  (1) 
1

>  <JCHEM_DONOR_COUNT>  (1) 
0

>  <JCHEM_FORMAL_CHARGE>  (1) 
0

>  <JCHEM_GHOSE_FILTER>  (1) 
0

>  <JCHEM_IUPAC>  (1) 
oxetan-2-one

>  <ALOGPS_LOGP>  (1) 
-0.55

>  <JCHEM_LOGP>  (1) 
-0.13910989933333343

>  <ALOGPS_LOGS>  (1) 
0.78

>  <JCHEM_MDDR_LIKE_RULE>  (1) 
0

>  <JCHEM_NUMBER_OF_RINGS>  (1) 
1

>  <JCHEM_PHYSIOLOGICAL_CHARGE>  (1) 
0

>  <JCHEM_PKA_STRONGEST_BASIC>  (1) 
-7.059542213312479

>  <JCHEM_POLAR_SURFACE_AREA>  (1) 
26.3

>  <JCHEM_REFRACTIVITY>  (1) 
15.553099999999999

>  <JCHEM_ROTATABLE_BOND_COUNT>  (1) 
0

>  <JCHEM_RULE_OF_FIVE>  (1) 
1

>  <ALOGPS_SOLUBILITY>  (1) 
4.36e+02 g/l

>  <JCHEM_TRADITIONAL_IUPAC>  (1) 
β propiolactone

>  <JCHEM_VEBER_RULE>  (1) 
1

>  <DRUGBANK_ID>  (1) 
DB09348

>  <DRUG_GROUPS>  (1) 
approved; withdrawn

>  <GENERIC_NAME>  (1) 
Propiolactone

>  <SYNONYMS>  (1) 
1,3-propiolactone; 3-propanolide; beta-Propiolactone; betapron; Propiolactona; Propiolactone; β-propiolactone

$$$$
