951
     RDKit          2D

 10 10  0  0  0  0  0  0  0  0999 V2000
    1.6500    0.9034    0.0000 O   0  0  0  0  0  0  0  0  0  0  0  0
    3.0790    0.9034    0.0000 N   0  0  0  0  0  0  0  0  0  0  0  0
    2.3644   -1.9841    0.0000 N   0  0  0  0  0  0  0  0  0  0  0  0
    3.0790    1.7284    0.0000 N   0  0  0  0  0  0  0  0  0  0  0  0
    2.3644   -0.3341    0.0000 C   0  0  0  0  0  0  0  0  0  0  0  0
    3.0790   -0.7466    0.0000 C   0  0  0  0  0  0  0  0  0  0  0  0
    1.6500   -0.7466    0.0000 C   0  0  0  0  0  0  0  0  0  0  0  0
    2.3644    0.4909    0.0000 C   0  0  0  0  0  0  0  0  0  0  0  0
    3.0790   -1.5716    0.0000 C   0  0  0  0  0  0  0  0  0  0  0  0
    1.6500   -1.5716    0.0000 C   0  0  0  0  0  0  0  0  0  0  0  0
  1  8  2  0
  2  4  1  0
  2  8  1  0
  3  9  2  0
  3 10  1  0
  5  6  2  0
  5  7  1  0
  5  8  1  0
  6  9  1  0
  7 10  2  0
M  END
>  <DATABASE_ID>  (1) 
DB00951

>  <DATABASE_NAME>  (1) 
drugbank

>  <SMILES>  (1) 
NNC(=O)C1=CC=NC=C1

>  <INCHI_IDENTIFIER>  (1) 
InChI=1S/C6H7N3O/c7-9-6(10)5-1-3-8-4-2-5/h1-4H,7H2,(H,9,10)

>  <INCHI_KEY>  (1) 
QRXWMOHMRWLFEY-UHFFFAOYSA-N

>  <FORMULA>  (1) 
C6H7N3O

>  <MOLECULAR_WEIGHT>  (1) 
137.1393

>  <EXACT_MASS>  (1) 
137.058911861

>  <JCHEM_ACCEPTOR_COUNT>  (1) 
3

>  <JCHEM_ATOM_COUNT>  (1) 
17

>  <JCHEM_AVERAGE_NEUTRAL_MICROSPECIES_CHARGE>  (1) 
0.00018824582374454252

>  <JCHEM_AVERAGE_POLARIZABILITY>  (1) 
13.211068752971109

>  <JCHEM_BIOAVAILABILITY>  (1) 
1

>  <JCHEM_DONOR_COUNT>  (1) 
2

>  <JCHEM_FORMAL_CHARGE>  (1) 
0

>  <JCHEM_GHOSE_FILTER>  (1) 
0

>  <JCHEM_IUPAC>  (1) 
pyridine-4-carbohydrazide

>  <ALOGPS_LOGP>  (1) 
-0.71

>  <JCHEM_LOGP>  (1) 
-0.6902620096666666

>  <ALOGPS_LOGS>  (1) 
-0.59

>  <JCHEM_MDDR_LIKE_RULE>  (1) 
0

>  <JCHEM_NEUTRAL_CHARGE>  (1) 
0

>  <JCHEM_NUMBER_OF_RINGS>  (1) 
1

>  <JCHEM_PHYSIOLOGICAL_CHARGE>  (1) 
0

>  <JCHEM_PKA_STRONGEST_ACIDIC>  (1) 
13.605501981555944

>  <JCHEM_PKA_STRONGEST_BASIC>  (1) 
3.3508092068029423

>  <JCHEM_POLAR_SURFACE_AREA>  (1) 
68.01

>  <JCHEM_REFRACTIVITY>  (1) 
37.46360000000001

>  <JCHEM_ROTATABLE_BOND_COUNT>  (1) 
1

>  <JCHEM_RULE_OF_FIVE>  (1) 
1

>  <ALOGPS_SOLUBILITY>  (1) 
3.49e+01 g/l

>  <JCHEM_TRADITIONAL_IUPAC>  (1) 
tetrahydrofolic acid

>  <JCHEM_VEBER_RULE>  (1) 
0

>  <DRUGBANK_ID>  (1) 
DB00951

>  <SECONDARY_ACCESSION_NUMBERS>  (1) 
APRD01055; EXPT01940

>  <DRUG_GROUPS>  (1) 
approved; investigational

>  <GENERIC_NAME>  (1) 
Isoniazid

>  <SYNONYMS>  (1) 
4-pyridinecarbohydrazide; INH; Isoniazid; Isoniazida; Isonicotinic acid hydrazide; Isonicotinic hydrazide; Isonicotinohydrazide; Isonicotinoylhydrazide; Isonicotinsäurehydrazid; Isonicotinylhydrazine; Pyridine-4-carboxylic acid hydrazide

>  <PRODUCTS>  (1) 
Dom-isoniazid 300mg Tablets; IsonaRif; Isoniazid; Isoniazid 300 mg; Isoniazid Syrup 50mg/5ml; Isoniazid Tab 100mg; Isoniazid Tab 300mg; Isoniazid Tab 50mg; Isoniazide 100mg Tablets; Isotamine; Isotamine B 300; PMS-isoniazid; Pdp-isoniazid; Rifamate; Rifater

>  <INTERNATIONAL_BRANDS>  (1) 
Nicozid; Nidrazid; Nydrazid; Rimicid; Rimifon; Servizid; Tibinide

$$$$
