
     RDKit          2D

 12 12  0  0  0  0  0  0  0  0999 V2000
    0.0000    2.4750    0.0000 C   0  0  0  0  0  0  0  0  0  0  0  0
    0.7145    2.0625    0.0000 C   0  0  0  0  0  0  0  0  0  0  0  0
    1.4289    2.4750    0.0000 C   0  0  0  0  0  0  0  0  0  0  0  0
    0.7145    1.2375    0.0000 C   0  0  0  0  0  0  0  0  0  0  0  0
    1.4289    0.8250    0.0000 C   0  0  0  0  0  0  0  0  0  0  0  0
    1.4289   -0.0000    0.0000 C   0  0  0  0  0  0  0  0  0  0  0  0
    2.1434   -0.4125    0.0000 Cl  0  0  0  0  0  0  0  0  0  0  0  0
    0.7145   -0.4125    0.0000 C   0  0  0  0  0  0  0  0  0  0  0  0
    0.7145   -1.2375    0.0000 C   0  0  0  0  0  0  0  0  0  0  0  0
    0.0000    0.0000    0.0000 C   0  0  0  0  0  0  0  0  0  0  0  0
    0.0000    0.8250    0.0000 C   0  0  0  0  0  0  0  0  0  0  0  0
   -0.7145    1.2375    0.0000 O   0  0  0  0  0  0  0  0  0  0  0  0
  1  2  1  0
  2  3  1  0
  2  4  1  0
  4  5  2  0
  5  6  1  0
  6  7  1  0
  6  8  2  0
  8  9  1  0
  8 10  1  0
 10 11  2  0
  4 11  1  0
 11 12  1  0
M  END
>  <DATABASE_ID>  (1) 
DB19375

>  <DATABASE_NAME>  (1) 
drugbank

>  <SMILES>  (1) 
CC(C)C1=CC(Cl)=C(C)C=C1O

>  <INCHI_IDENTIFIER>  (1) 
InChI=1S/C10H13ClO/c1-6(2)8-5-9(11)7(3)4-10(8)12/h4-6,12H,1-3H3

>  <INCHI_KEY>  (1) 
KFZXVMNBUMVKLN-UHFFFAOYSA-N

>  <FORMULA>  (1) 
C10H13ClO

>  <MOLECULAR_WEIGHT>  (1) 
184.66

>  <EXACT_MASS>  (1) 
184.0654927

>  <DRUGBANK_ID>  (1) 
DB19375

>  <DRUG_GROUPS>  (1) 
approved

>  <GENERIC_NAME>  (1) 
Chlorothymol

>  <SYNONYMS>  (1) 
4-chlor-2-isopropyl-5-methylphenol; 4-chloro-5-methyl-2-(1-methylethyl)phenol; 4-chlorothymol; 6-chlorothymol; Phenol, 4-chloro-5-methyl-2-(1-methylethyl)-

$$$$
