
     RDKit          2D

 16 17  0  0  0  0  0  0  0  0999 V2000
    1.4289    3.3000    0.0000 C   0  0  0  0  0  0  0  0  0  0  0  0
    2.1434    3.7125    0.0000 C   0  0  0  0  0  0  0  0  0  0  0  0
    0.7145    3.7125    0.0000 C   0  0  0  0  0  0  0  0  0  0  0  0
    2.8579    8.2500    0.0000 C   0  0  0  0  0  0  0  0  0  0  0  0
    2.1434    8.6625    0.0000 C   0  0  0  0  0  0  0  0  0  0  0  0
    2.1434    4.5375    0.0000 C   0  0  0  0  0  0  0  0  0  0  0  0
    0.7145    4.5375    0.0000 C   0  0  0  0  0  0  0  0  0  0  0  0
    2.8579    7.4250    0.0000 C   0  0  0  0  0  0  0  0  0  0  0  0
    1.4289    8.2500    0.0000 C   0  0  0  0  0  0  0  0  0  0  0  0
    1.4289    4.9500    0.0000 C   0  0  0  0  0  0  0  0  0  0  0  0
    2.1434    7.0125    0.0000 C   0  0  0  0  0  0  0  0  0  0  0  0
    1.4289    7.4250    0.0000 C   0  0  0  0  0  0  0  0  0  0  0  0
    2.1434    6.1875    0.0000 C   0  0  0  0  0  0  0  0  0  0  0  0
    0.7145    7.0125    0.0000 O   0  0  0  0  0  0  0  0  0  0  0  0
    2.8579    5.7750    0.0000 O   0  0  0  0  0  0  0  0  0  0  0  0
    1.4289    5.7750    0.0000 O   0  0  0  0  0  0  0  0  0  0  0  0
  2  1  2  0
  3  1  1  0
  5  4  2  0
  6  2  1  0
  7  3  2  0
  8  4  1  0
  9  5  1  0
 10  6  2  0
 10  7  1  0
 11  8  2  0
 12  9  2  0
 12 11  1  0
 13 11  1  0
 14 12  1  0
 15 13  2  0
 16 10  1  0
 16 13  1  0
M  END
>  <DATABASE_ID>  (1) 
DB11071

>  <DATABASE_NAME>  (1) 
drugbank

>  <SMILES>  (1) 
OC1=CC=CC=C1C(=O)OC1=CC=CC=C1

>  <INCHI_IDENTIFIER>  (1) 
InChI=1S/C13H10O3/c14-12-9-5-4-8-11(12)13(15)16-10-6-2-1-3-7-10/h1-9,14H

>  <INCHI_KEY>  (1) 
ZQBAKBUEJOMQEX-UHFFFAOYSA-N

>  <FORMULA>  (1) 
C13H10O3

>  <MOLECULAR_WEIGHT>  (1) 
214.2167

>  <EXACT_MASS>  (1) 
214.062994186

>  <JCHEM_ACCEPTOR_COUNT>  (1) 
2

>  <JCHEM_ATOM_COUNT>  (1) 
26

>  <JCHEM_AVERAGE_NEUTRAL_MICROSPECIES_CHARGE>  (1) 
-0.002141817804259806

>  <JCHEM_AVERAGE_POLARIZABILITY>  (1) 
21.957786270371987

>  <JCHEM_BIOAVAILABILITY>  (1) 
1

>  <JCHEM_DONOR_COUNT>  (1) 
1

>  <JCHEM_FORMAL_CHARGE>  (1) 
0

>  <JCHEM_GHOSE_FILTER>  (1) 
1

>  <JCHEM_IUPAC>  (1) 
phenyl 2-hydroxybenzoate

>  <ALOGPS_LOGP>  (1) 
3.58

>  <JCHEM_LOGP>  (1) 
3.981115907

>  <ALOGPS_LOGS>  (1) 
-3.00

>  <JCHEM_MDDR_LIKE_RULE>  (1) 
0

>  <JCHEM_NEUTRAL_CHARGE>  (1) 
0

>  <JCHEM_NUMBER_OF_RINGS>  (1) 
2

>  <JCHEM_PHYSIOLOGICAL_CHARGE>  (1) 
0

>  <JCHEM_PKA_STRONGEST_ACIDIC>  (1) 
9.668286297345222

>  <JCHEM_PKA_STRONGEST_BASIC>  (1) 
-4.29125466160739

>  <JCHEM_POLAR_SURFACE_AREA>  (1) 
46.53

>  <JCHEM_REFRACTIVITY>  (1) 
59.84180000000001

>  <JCHEM_ROTATABLE_BOND_COUNT>  (1) 
3

>  <JCHEM_RULE_OF_FIVE>  (1) 
1

>  <ALOGPS_SOLUBILITY>  (1) 
2.16e-01 g/l

>  <JCHEM_TRADITIONAL_IUPAC>  (1) 
biotin

>  <JCHEM_VEBER_RULE>  (1) 
0

>  <DRUGBANK_ID>  (1) 
DB11071

>  <DRUG_GROUPS>  (1) 
approved

>  <GENERIC_NAME>  (1) 
Phenyl salicylate

>  <SYNONYMS>  (1) 
Salol

>  <PRODUCTS>  (1) 
Azuphen Mb; Darcalma; Darpaz; Hyolev Mb; Hyophen; Mb Caps; Methylphen; Phosenamine; Phosphasal; Prosed/DS; UR N-C Urinary Antiseptic; UrNeva; Uralgic; Uramit Mb; Urelle; Uretron D/S; Uribel; Uribel Tabs; Urimar-T; Urimar-T Caps; Urin D/S; Urised; Uro-458; Uro-L; Uro-MP; Uro-SP; UroAv-81; UroAv-B; Urophen Mb; Ustell; Uta; Utira-C; Vilamit MB; Vilevev MB; Watkins Settelz

$$$$
