1137
     RDKit          2D

 26 29  0  0  1  0  0  0  0  0999 V2000
    5.2224    2.1733    0.0000 F   0  0  0  0  0  0  0  0  0  0  0  0
    3.7572   -0.3074    0.0000 O   0  0  0  0  0  0  0  0  0  0  0  0
    7.3574    0.1203    0.0000 O   0  0  0  0  0  0  0  0  0  0  0  0
    7.3958   -2.3388    0.0000 O   0  0  0  0  0  0  0  0  0  0  0  0
    8.0858   -1.0875    0.0000 O   0  0  0  0  0  0  0  0  0  0  0  0
    3.7935    1.3482    0.0000 N   0  0  0  0  0  0  0  0  0  0  0  0
    5.2357   -1.1610    0.0000 N   0  0  0  0  0  0  0  0  0  0  0  0
    2.3645    2.1733    0.0000 N   0  0  0  0  0  0  0  0  0  0  0  0
    3.7935    2.1733    0.0000 C   0  0  0  0  0  0  0  0  0  0  0  0
    3.0791    0.9357    0.0000 C   0  0  0  0  0  0  0  0  0  0  0  0
    4.4948   -1.5965    0.0000 C   0  0  0  0  0  0  0  0  0  0  0  0
    4.5080    0.9357    0.0000 C   0  0  0  0  0  0  0  0  0  0  0  0
    5.2224   -0.3018    0.0000 C   0  0  0  0  0  0  0  0  0  0  0  0
    4.5080    0.1107    0.0000 C   0  0  0  0  0  0  0  0  0  0  0  0
    3.0791    2.5858    0.0000 C   0  0  0  0  0  0  0  0  0  0  0  0
    2.3645    1.3482    0.0000 C   0  0  0  0  0  0  0  0  0  0  0  0
    3.7506   -1.1667    0.0000 C   0  0  0  0  0  0  0  0  0  0  0  0
    5.9370    0.1107    0.0000 C   0  0  0  0  0  0  0  0  0  0  0  0
    5.2224    1.3482    0.0000 C   0  0  0  0  0  0  0  0  0  0  0  0
    5.9594   -1.5429    0.0000 C   0  0  0  0  0  0  0  0  0  0  0  0
    5.9370    0.9357    0.0000 C   0  0  0  0  0  0  0  0  0  0  0  0
    4.4980   -2.4214    0.0000 C   0  0  0  0  0  0  0  0  0  0  0  0
    6.6460   -0.2975    0.0000 C   0  0  0  0  0  0  0  0  0  0  0  0
    1.6500    2.5858    0.0000 C   0  0  0  0  0  0  0  0  0  0  0  0
    6.6571   -1.1156    0.0000 C   0  0  0  0  0  0  0  0  0  0  0  0
    7.3796   -1.5139    0.0000 C   0  0  0  0  0  0  0  0  0  0  0  0
  1 19  1  0
  2 14  1  0
  2 17  1  0
  3 23  2  0
  4 26  1  0
  5 26  2  0
  6  9  1  0
  6 10  1  0
  6 12  1  0
  7 11  1  0
  7 13  1  0
  7 20  1  0
  8 15  1  0
  8 16  1  0
  8 24  1  0
  9 15  1  0
 10 16  1  0
 11 17  1  0
 11 22  1  1
 12 14  1  0
 12 19  2  0
 13 14  2  0
 13 18  1  0
 18 21  2  0
 18 23  1  0
 19 21  1  0
 20 25  2  0
 23 25  1  0
 25 26  1  0
M  END
>  <DATABASE_ID>  (1) 
DB01137

>  <DATABASE_NAME>  (1) 
drugbank

>  <SMILES>  (1) 
C[C@H]1COC2=C3N1C=C(C(O)=O)C(=O)C3=CC(F)=C2N1CCN(C)CC1

>  <INCHI_IDENTIFIER>  (1) 
InChI=1S/C18H20FN3O4/c1-10-9-26-17-14-11(16(23)12(18(24)25)8-22(10)14)7-13(19)15(17)21-5-3-20(2)4-6-21/h7-8,10H,3-6,9H2,1-2H3,(H,24,25)/t10-/m0/s1

>  <INCHI_KEY>  (1) 
GSDSWSVVBLHKDQ-JTQLQIEISA-N

>  <FORMULA>  (1) 
C18H20FN3O4

>  <MOLECULAR_WEIGHT>  (1) 
361.3675

>  <EXACT_MASS>  (1) 
361.143784348

>  <JCHEM_ACCEPTOR_COUNT>  (1) 
7

>  <JCHEM_ATOM_COUNT>  (1) 
46

>  <JCHEM_AVERAGE_NEUTRAL_MICROSPECIES_CHARGE>  (1) 
-0.6058476062629603

>  <JCHEM_AVERAGE_POLARIZABILITY>  (1) 
36.69213757884126

>  <JCHEM_BIOAVAILABILITY>  (1) 
1

>  <JCHEM_DONOR_COUNT>  (1) 
1

>  <JCHEM_FORMAL_CHARGE>  (1) 
0

>  <JCHEM_GHOSE_FILTER>  (1) 
1

>  <JCHEM_IUPAC>  (1) 
(2S)-7-fluoro-2-methyl-6-(4-methylpiperazin-1-yl)-10-oxo-4-oxa-1-azatricyclo[7.3.1.0^{5,13}]trideca-5(13),6,8,11-tetraene-11-carboxylic acid

>  <ALOGPS_LOGP>  (1) 
-0.02

>  <JCHEM_LOGP>  (1) 
0.09021636342487031

>  <ALOGPS_LOGS>  (1) 
-2.40

>  <JCHEM_MDDR_LIKE_RULE>  (1) 
0

>  <JCHEM_NEUTRAL_CHARGE>  (1) 
0

>  <JCHEM_NUMBER_OF_RINGS>  (1) 
4

>  <JCHEM_PHYSIOLOGICAL_CHARGE>  (1) 
-1

>  <JCHEM_PKA_STRONGEST_ACIDIC>  (1) 
5.351541045910119

>  <JCHEM_PKA_STRONGEST_BASIC>  (1) 
6.717421184026315

>  <JCHEM_POLAR_SURFACE_AREA>  (1) 
73.32

>  <JCHEM_REFRACTIVITY>  (1) 
94.93590000000002

>  <JCHEM_ROTATABLE_BOND_COUNT>  (1) 
2

>  <JCHEM_RULE_OF_FIVE>  (1) 
1

>  <ALOGPS_SOLUBILITY>  (1) 
1.44e+00 g/l

>  <JCHEM_TRADITIONAL_IUPAC>  (1) 
tetrahydrofolic acid

>  <JCHEM_VEBER_RULE>  (1) 
0

>  <DRUGBANK_ID>  (1) 
DB01137

>  <SECONDARY_ACCESSION_NUMBERS>  (1) 
APRD00477; DB06085

>  <DRUG_GROUPS>  (1) 
approved; investigational

>  <GENERIC_NAME>  (1) 
Levofloxacin

>  <SYNONYMS>  (1) 
(-)-Ofloxacin; (3S)-(-)-9-fluoro-3-methyl-10-(4-methyl-1-piperazinyl)-7-oxo-2,3-dihydro-7H-pyrido[1,2,3-de][1,4]benzoxazine-6-carboxylic acid; (S)-(-)-9-fluoro-3-methyl-10-(4-methyl-1-piperazinyl)-7-oxo-2,3-dihydro-7H-pyrido[1,2,3-de][1,4]benzooxazine-6-carboxylic acid; (S)-9-Fluoro-2,3-dihydro-3-methyl-10-(4-methyl-1-piperazinyl)-7-oxo-7H-pyrido(1,2,3-de)-1,4-benzoxazine-6-carboxylic acid; (S)-Ofloxacin; L-Ofloxacin; Levofloxacin; Levofloxacin anhydrous; Levofloxacine; Levofloxacino; Levofloxacinum; Ofloxacin S-(-)-form

>  <PRODUCTS>  (1) 
Act Levofloxacin; Apo-levofloxacin; Auro-levofloxacin; Ava-levofloxacin; Dom-levofloxacin; Iquix; Jamp Levofloxacin; Levaquin; Levaquin 25mg/ml; Levaquin 500mg; Levaquin 5mg/ml; Levaquin 750mg; Levodexa; Levofloxacin; Levofloxacin In 5% Dextrose Injection; Levofloxacin Injection; Mint-levofloxacin; Mylan-levofloxacin; Ntp-levofloxacin; PHL-levofloxacin; PMS-levofloxacin; Quinsair; Quixin; Riva-levofloxacin; Sandoz Levofloxacin; Teva-levofloxacin

>  <INTERNATIONAL_BRANDS>  (1) 
Cravit; Elequine; Floxel; Leroxacin; Levokacin; Levox; Levoxacin; Mosardal; Nofaxin; Reskuin; Tavanic

>  <SALTS>  (1) 
Levofloxacin hemihydrate

$$$$
