
     RDKit          2D

 20 20  0  0  0  0  0  0  0  0999 V2000
   -0.0207   -0.2077    0.0000 C   0  0  0  0  0  0  0  0  0  0  0  0
   -0.7269   -0.6230    0.0000 C   0  0  0  0  0  0  0  0  0  0  0  0
   -0.0207    0.6230    0.0000 C   0  0  0  0  0  0  0  0  0  0  0  0
    0.6853   -0.6230    0.0000 O   0  0  0  0  0  0  0  0  0  0  0  0
   -1.4746   -0.2077    0.0000 C   0  0  0  0  0  0  0  0  0  0  0  0
   -0.7269   -1.4538    0.0000 C   0  0  0  0  0  0  0  0  0  0  0  0
   -0.7269    1.0385    0.0000 C   0  0  0  0  0  0  0  0  0  0  0  0
    1.4331   -0.2077    0.0000 C   0  0  0  0  0  0  0  0  0  0  0  0
   -1.4746    0.6230    0.0000 C   0  0  0  0  0  0  0  0  0  0  0  0
   -0.7269    1.8693    0.0000 C   0  0  0  0  0  0  0  0  0  0  0  0
    2.1392   -0.6230    0.0000 C   0  0  0  0  0  0  0  0  0  0  0  0
   -2.1808    1.0385    0.0000 O   0  0  0  0  0  0  0  0  0  0  0  0
    2.8870   -0.2077    0.0000 N   0  0  0  0  0  0  0  0  0  0  0  0
   -2.8870    0.6230    0.0000 C   0  0  0  0  0  0  0  0  0  0  0  0
   -3.5932    1.0385    0.0000 C   0  0  0  0  0  0  0  0  0  0  0  0
   -2.8870   -0.2077    0.0000 O   0  0  0  0  0  0  0  0  0  0  0  0
    2.8870    0.6230    0.0000 C   0  0  0  0  0  0  0  0  0  0  0  0
    3.5932   -0.6230    0.0000 C   0  0  0  0  0  0  0  0  0  0  0  0
   -1.4331   -1.8693    0.0000 C   0  0  0  0  0  0  0  0  0  0  0  0
   -0.0207   -1.8693    0.0000 C   0  0  0  0  0  0  0  0  0  0  0  0
  2  5  1  0
  2  6  1  0
  3  7  2  0
  4  8  1  0
  5  9  2  0
  7 10  1  0
  8 11  1  0
  9 12  1  0
 11 13  1  0
 12 14  1  0
 14 15  1  0
 14 16  2  0
  7  9  1  0
 13 17  1  0
 13 18  1  0
  1  2  2  0
  6 19  1  0
  1  3  1  0
  6 20  1  0
  1  4  1  0
M  END
>  <DATABASE_ID>  (1) 
DB09205

>  <DATABASE_NAME>  (1) 
drugbank

>  <SMILES>  (1) 
CC(C)C1=C(OCCN(C)C)C=C(C)C(OC(C)=O)=C1

>  <INCHI_IDENTIFIER>  (1) 
InChI=1S/C16H25NO3/c1-11(2)14-10-15(20-13(4)18)12(3)9-16(14)19-8-7-17(5)6/h9-11H,7-8H2,1-6H3

>  <INCHI_KEY>  (1) 
VRYMTAVOXVTQEF-UHFFFAOYSA-N

>  <FORMULA>  (1) 
C16H25NO3

>  <MOLECULAR_WEIGHT>  (1) 
279.38

>  <EXACT_MASS>  (1) 
279.183443669

>  <JCHEM_ACCEPTOR_COUNT>  (1) 
3

>  <JCHEM_ATOM_COUNT>  (1) 
45

>  <JCHEM_AVERAGE_POLARIZABILITY>  (1) 
32.38791635943949

>  <JCHEM_BIOAVAILABILITY>  (1) 
1

>  <JCHEM_DONOR_COUNT>  (1) 
0

>  <JCHEM_FORMAL_CHARGE>  (1) 
0

>  <JCHEM_GHOSE_FILTER>  (1) 
1

>  <JCHEM_IUPAC>  (1) 
4-[2-(dimethylamino)ethoxy]-2-methyl-5-(propan-2-yl)phenyl acetate

>  <ALOGPS_LOGP>  (1) 
3.22

>  <JCHEM_LOGP>  (1) 
3.1999105869999993

>  <ALOGPS_LOGS>  (1) 
-2.84

>  <JCHEM_MDDR_LIKE_RULE>  (1) 
0

>  <JCHEM_NUMBER_OF_RINGS>  (1) 
1

>  <JCHEM_PHYSIOLOGICAL_CHARGE>  (1) 
1

>  <JCHEM_PKA_STRONGEST_BASIC>  (1) 
8.794279254678047

>  <JCHEM_POLAR_SURFACE_AREA>  (1) 
38.77

>  <JCHEM_REFRACTIVITY>  (1) 
80.90470000000002

>  <JCHEM_ROTATABLE_BOND_COUNT>  (1) 
7

>  <JCHEM_RULE_OF_FIVE>  (1) 
1

>  <ALOGPS_SOLUBILITY>  (1) 
4.06e-01 g/l

>  <JCHEM_TRADITIONAL_IUPAC>  (1) 
moxisylyte

>  <JCHEM_VEBER_RULE>  (1) 
1

>  <DRUGBANK_ID>  (1) 
DB09205

>  <DRUG_GROUPS>  (1) 
approved

>  <GENERIC_NAME>  (1) 
Moxisylyte

>  <SYNONYMS>  (1) 
(2-(4-ACETOXY-2-ISOPROPYL-5-METHYLPHENOXY)ETHYL)DIMETHYLAMINE; 6-ACETOXYTHYMOL 2-(DIMETHYLAMINO)ETHYL ETHER; Moxisylyte; Thymoxamine

>  <SALTS>  (1) 
Moxisylyte hydrochloride

$$$$
