
     RDKit          2D

 28 30  0  0  1  0  0  0  0  0999 V2000
    0.0000    2.7224    0.0000 N   0  0  0  0  0  0  0  0  0  0  0  0
    0.7145    2.3099    0.0000 C   0  0  0  0  0  0  0  0  0  0  0  0
    0.7145    1.4849    0.0000 C   0  0  0  0  0  0  0  0  0  0  0  0
    0.0000    1.0724    0.0000 C   0  0  0  0  0  0  0  0  0  0  0  0
   -0.7144    1.4849    0.0000 C   0  0  0  0  0  0  0  0  0  0  0  0
   -1.4288    1.0724    0.0000 C   0  0  0  0  0  0  0  0  0  0  0  0
   -2.1433    1.4849    0.0000 N   0  0  0  0  0  0  0  0  0  0  0  0
   -2.1433    2.3099    0.0000 C   0  0  0  0  0  0  0  0  0  0  0  0
   -1.4288    2.7224    0.0000 C   0  0  0  0  0  0  0  0  0  0  0  0
   -0.7144    2.3099    0.0000 C   0  0  0  0  0  0  0  0  0  0  0  0
    1.4289    1.0724    0.0000 C   0  0  0  0  0  0  0  0  0  0  0  0
    1.4289    0.2474    0.0000 O   0  0  0  0  0  0  0  0  0  0  0  0
    2.1433    1.4849    0.0000 N   0  0  0  0  0  0  0  0  0  0  0  0
   -1.4288    3.5475    0.0000 C   0  0  0  0  0  0  0  0  0  0  0  0
    1.4289    2.7224    0.0000 C   0  0  0  0  0  0  0  0  0  0  0  0
   -1.4288    0.2474    0.0000 O   0  0  0  0  0  0  0  0  0  0  0  0
   -2.1433   -0.1650    0.0000 C   0  0  0  0  0  0  0  0  0  0  0  0
   -2.1433   -0.9899    0.0000 C   0  0  0  0  0  0  0  0  0  0  0  0
    0.0000   -0.2475    0.0000 C   0  0  0  0  0  0  0  0  0  0  0  0
    0.7145   -0.6600    0.0000 C   0  0  0  0  0  0  0  0  0  0  0  0
    0.7145   -1.4850    0.0000 C   0  0  0  0  0  0  0  0  0  0  0  0
    0.0000   -1.8975    0.0000 C   0  0  0  0  0  0  0  0  0  0  0  0
   -0.7144   -1.4850    0.0000 C   0  0  0  0  0  0  0  0  0  0  0  0
   -0.7144   -0.6600    0.0000 C   0  0  0  0  0  0  0  0  0  0  0  0
    1.4289   -0.2475    0.0000 O   0  0  0  0  0  0  0  0  0  0  0  0
    2.1433   -0.6600    0.0000 C   0  0  0  0  0  0  0  0  0  0  0  0
    0.0000   -2.7224    0.0000 C   0  0  0  0  0  0  0  0  0  0  0  0
    0.0000   -3.5475    0.0000 N   0  0  0  0  0  0  0  0  0  0  0  0
  1  2  1  0
  2  3  2  0
  3  4  1  0
  4  5  1  0
  5  6  2  0
  6  7  1  0
  7  8  2  0
  8  9  1  0
  9 10  2  0
  1 10  1  0
  5 10  1  0
 11 12  2  0
 11 13  1  0
  3 11  1  0
  9 14  1  0
  2 15  1  0
 17 18  1  0
 16 17  1  0
  6 16  1  0
 19 20  2  0
 20 21  1  0
 21 22  2  0
 22 23  1  0
 23 24  2  0
 19 24  1  0
 25 26  1  0
 20 25  1  0
 27 28  3  0
 22 27  1  0
  4 19  1  1
M  END
>  <DATABASE_ID>  (1) 
DB16165

>  <DATABASE_NAME>  (1) 
drugbank

>  <SMILES>  (1) 
CCOC1=NC=C(C)C2=C1[C@H](C1=CC=C(C=C1OC)C#N)C(C(N)=O)=C(C)N2

>  <INCHI_IDENTIFIER>  (1) 
InChI=1S/C21H22N4O3/c1-5-28-21-18-17(14-7-6-13(9-22)8-15(14)27-4)16(20(23)26)12(3)25-19(18)11(2)10-24-21/h6-8,10,17,25H,5H2,1-4H3,(H2,23,26)/t17-/m1/s1

>  <INCHI_KEY>  (1) 
BTBHLEZXCOBLCY-QGZVFWFLSA-N

>  <FORMULA>  (1) 
C21H22N4O3

>  <MOLECULAR_WEIGHT>  (1) 
378.432

>  <EXACT_MASS>  (1) 
378.169190584

>  <JCHEM_ACCEPTOR_COUNT>  (1) 
6

>  <JCHEM_ATOM_COUNT>  (1) 
50

>  <JCHEM_AVERAGE_NEUTRAL_MICROSPECIES_CHARGE>  (1) 
1.3090694334408

>  <JCHEM_AVERAGE_POLARIZABILITY>  (1) 
39.66279793479905

>  <JCHEM_BIOAVAILABILITY>  (1) 
1

>  <JCHEM_DONOR_COUNT>  (1) 
2

>  <JCHEM_FORMAL_CHARGE>  (1) 
0

>  <JCHEM_GHOSE_FILTER>  (1) 
1

>  <JCHEM_IUPAC>  (1) 
(4S)-4-(4-cyano-2-methoxyphenyl)-5-ethoxy-2,8-dimethyl-1,4-dihydro-1,6-naphthyridine-3-carboxamide

>  <ALOGPS_LOGP>  (1) 
2.21

>  <JCHEM_LOGP>  (1) 
1.8515019663333336

>  <ALOGPS_LOGS>  (1) 
-4.03

>  <JCHEM_MDDR_LIKE_RULE>  (1) 
0

>  <JCHEM_NEUTRAL_CHARGE>  (1) 
0

>  <JCHEM_NUMBER_OF_RINGS>  (1) 
3

>  <JCHEM_PHYSIOLOGICAL_CHARGE>  (1) 
0

>  <JCHEM_PKA>  (1) 
16.471196920283155

>  <JCHEM_PKA_STRONGEST_ACIDIC>  (1) 
14.870492772661683

>  <JCHEM_PKA_STRONGEST_BASIC>  (1) 
6.062285905686339

>  <JCHEM_POLAR_SURFACE_AREA>  (1) 
110.26000000000002

>  <JCHEM_REFRACTIVITY>  (1) 
109.13400000000001

>  <JCHEM_ROTATABLE_BOND_COUNT>  (1) 
5

>  <JCHEM_RULE_OF_FIVE>  (1) 
1

>  <ALOGPS_SOLUBILITY>  (1) 
3.54e-02 g/l

>  <JCHEM_TRADITIONAL_IUPAC>  (1) 
finerenone

>  <JCHEM_VEBER_RULE>  (1) 
0

>  <DRUGBANK_ID>  (1) 
DB16165

>  <DRUG_GROUPS>  (1) 
approved; investigational

>  <GENERIC_NAME>  (1) 
Finerenone

>  <SYNONYMS>  (1) 
Finerenone

>  <PRODUCTS>  (1) 
Kerendia

>  <INTERNATIONAL_BRANDS>  (1) 
Kerendia

$$$$
