1158
     RDKit          2D

 13 13  0  0  0  0  0  0  0  0999 V2000
    1.6500   -0.4125    0.0000 Br  0  0  0  0  0  0  0  0  0  0  0  0
    3.7935    0.8250    0.0000 N   0  0  0  0  0  0  0  0  0  0  0  0
    3.0791    0.4125    0.0000 C   0  0  0  0  0  0  0  0  0  0  0  0
    4.5080    1.2375    0.0000 C   0  0  0  0  0  0  0  0  0  0  0  0
    3.3810    1.5395    0.0000 C   0  0  0  0  0  0  0  0  0  0  0  0
    4.2060    0.1106    0.0000 C   0  0  0  0  0  0  0  0  0  0  0  0
    3.0791   -0.4125    0.0000 C   0  0  0  0  0  0  0  0  0  0  0  0
    4.5080    2.0625    0.0000 C   0  0  0  0  0  0  0  0  0  0  0  0
    2.3645   -0.8250    0.0000 C   0  0  0  0  0  0  0  0  0  0  0  0
    3.7935   -0.8250    0.0000 C   0  0  0  0  0  0  0  0  0  0  0  0
    2.3645   -1.6500    0.0000 C   0  0  0  0  0  0  0  0  0  0  0  0
    3.7935   -1.6500    0.0000 C   0  0  0  0  0  0  0  0  0  0  0  0
    3.0791   -2.0625    0.0000 C   0  0  0  0  0  0  0  0  0  0  0  0
  1  9  1  0
  2  3  1  0
  2  4  1  0
  2  5  1  0
  2  6  1  0
  3  7  1  0
  4  8  1  0
  7  9  2  0
  7 10  1  0
  9 11  1  0
 10 12  2  0
 11 13  2  0
 12 13  1  0
M  CHG  1   2   1
M  END
>  <DATABASE_ID>  (1) 
DB01158

>  <DATABASE_NAME>  (1) 
drugbank

>  <SMILES>  (1) 
CC[N+](C)(C)CC1=CC=CC=C1Br

>  <INCHI_IDENTIFIER>  (1) 
InChI=1S/C11H17BrN/c1-4-13(2,3)9-10-7-5-6-8-11(10)12/h5-8H,4,9H2,1-3H3/q+1

>  <INCHI_KEY>  (1) 
AAQOQKQBGPPFNS-UHFFFAOYSA-N

>  <FORMULA>  (1) 
C11H17BrN

>  <MOLECULAR_WEIGHT>  (1) 
243.163

>  <EXACT_MASS>  (1) 
242.054437196

>  <JCHEM_ACCEPTOR_COUNT>  (1) 
0

>  <JCHEM_ATOM_COUNT>  (1) 
30

>  <JCHEM_AVERAGE_NEUTRAL_MICROSPECIES_CHARGE>  (1) 
0.9999999999738404

>  <JCHEM_AVERAGE_POLARIZABILITY>  (1) 
23.240558368173073

>  <JCHEM_BIOAVAILABILITY>  (1) 
1

>  <JCHEM_DONOR_COUNT>  (1) 
0

>  <JCHEM_FORMAL_CHARGE>  (1) 
1

>  <JCHEM_GHOSE_FILTER>  (1) 
0

>  <JCHEM_IUPAC>  (1) 
[(2-bromophenyl)methyl](ethyl)dimethylazanium

>  <ALOGPS_LOGP>  (1) 
-1.36

>  <JCHEM_LOGP>  (1) 
-1.122133453471745

>  <ALOGPS_LOGS>  (1) 
-6.26

>  <JCHEM_MDDR_LIKE_RULE>  (1) 
0

>  <JCHEM_NEUTRAL_CHARGE>  (1) 
1

>  <JCHEM_NUMBER_OF_RINGS>  (1) 
1

>  <JCHEM_PHYSIOLOGICAL_CHARGE>  (1) 
1

>  <JCHEM_PKA_STRONGEST_ACIDIC>  (1) 
17.582369141840907

>  <JCHEM_POLAR_SURFACE_AREA>  (1) 
0.0

>  <JCHEM_REFRACTIVITY>  (1) 
72.88570000000001

>  <JCHEM_ROTATABLE_BOND_COUNT>  (1) 
3

>  <JCHEM_RULE_OF_FIVE>  (1) 
1

>  <ALOGPS_SOLUBILITY>  (1) 
1.54e-04 g/l

>  <JCHEM_TRADITIONAL_IUPAC>  (1) 
tetrahydrofolic acid

>  <JCHEM_VEBER_RULE>  (1) 
1

>  <DRUGBANK_ID>  (1) 
DB01158

>  <SECONDARY_ACCESSION_NUMBERS>  (1) 
APRD00830

>  <DRUG_GROUPS>  (1) 
approved

>  <GENERIC_NAME>  (1) 
Bretylium

>  <SYNONYMS>  (1) 
(2-bromobenzyl)ethyldimethylaminium; 2-bromo-N-ethyl-N,N-dimethylbenzenemethanaminium; Bretylium; N-ethyl-N,N-dimethyl-2-bromobenzenemethanaminium

>  <PRODUCTS>  (1) 
Bretylate Inj 50mg/ml; Bretylium Tosylate; Bretylium Tosylate 0.2% and Dextrose 5% Inj; Bretylium Tosylate 0.4% and Dextrose 5% Inj; Bretylium Tosylate Inj 50mg/ml; Bretylium Tosylate Injection USP

>  <INTERNATIONAL_BRANDS>  (1) 
Anxyrex; Bretylol; Bromidem; Creosedin; Darenthin; Lexotan; Xionil

>  <SALTS>  (1) 
Bretylium tosylate

$$$$
