658
     RDKit          2D

  9  8  0  0  1  0  0  0  0  0999 V2000
    0.1473    0.8043    0.0000 Cl  0  0  0  0  0  0  0  0  0  0  0  0
    1.9889    1.5189    0.0000 O   0  0  0  0  0  0  0  0  0  0  0  0
    0.4430    3.6804    0.0000 N   0  0  0  0  0  0  0  0  0  0  0  0
    1.5764    0.8043    0.0000 C   0  0  0  0  0  0  0  0  0  0  0  0
    2.4014    0.8043    0.0000 C   0  0  0  0  0  0  0  0  0  0  0  0
    0.8619    0.3918    0.0000 C   0  0  0  0  0  0  0  0  0  0  0  0
    1.1575    4.0929    0.0000 C   0  0  0  0  0  0  0  0  0  0  0  0
    1.8720    3.6804    0.0000 C   0  0  0  0  0  0  0  0  0  0  0  0
    2.5864    4.0929    0.0000 C   0  0  0  0  0  0  0  0  0  0  0  0
  1  6  1  0
  2  4  1  0
  2  5  1  0
  3  7  1  0
  4  5  1  0
  4  6  1  0
  7  8  1  0
  8  9  2  0
M  END
>  <DATABASE_ID>  (1) 
DB00658

>  <DATABASE_NAME>  (1) 
drugbank

>  <SMILES>  (1) 
NCC=C.ClCC1CO1

>  <INCHI_IDENTIFIER>  (1) 
InChI=1S/C3H5ClO.C3H7N/c4-1-3-2-5-3;1-2-3-4/h3H,1-2H2;2H,1,3-4H2

>  <INCHI_KEY>  (1) 
ZNSIZMQNQCNRBW-UHFFFAOYSA-N

>  <FORMULA>  (1) 
C6H12ClNO

>  <MOLECULAR_WEIGHT>  (1) 
149.619

>  <EXACT_MASS>  (1) 
149.060741718

>  <JCHEM_ACCEPTOR_COUNT>  (1) 
1

>  <JCHEM_ATOM_COUNT>  (1) 
21

>  <JCHEM_AVERAGE_NEUTRAL_MICROSPECIES_CHARGE>  (1) 
6.495773143474118e-12

>  <JCHEM_AVERAGE_POLARIZABILITY>  (1) 
8.378712225429396

>  <JCHEM_BIOAVAILABILITY>  (1) 
1

>  <JCHEM_DONOR_COUNT>  (1) 
0

>  <JCHEM_FORMAL_CHARGE>  (1) 
0

>  <JCHEM_GHOSE_FILTER>  (1) 
0

>  <JCHEM_IUPAC>  (1) 
2-(chloromethyl)oxirane; prop-2-en-1-amine

>  <ALOGPS_LOGP>  (1) 
0.35

>  <JCHEM_LOGP>  (1) 
0.6772814056666667

>  <ALOGPS_LOGS>  (1) 
-0.11

>  <JCHEM_MDDR_LIKE_RULE>  (1) 
0

>  <JCHEM_NEUTRAL_CHARGE>  (1) 
0

>  <JCHEM_NUMBER_OF_RINGS>  (1) 
1

>  <JCHEM_PHYSIOLOGICAL_CHARGE>  (1) 
0

>  <JCHEM_PKA_STRONGEST_BASIC>  (1) 
-4.187369150675658

>  <JCHEM_POLAR_SURFACE_AREA>  (1) 
12.53

>  <JCHEM_REFRACTIVITY>  (1) 
20.057

>  <JCHEM_ROTATABLE_BOND_COUNT>  (1) 
2

>  <JCHEM_RULE_OF_FIVE>  (1) 
1

>  <ALOGPS_SOLUBILITY>  (1) 
7.18e+01 g/l

>  <JCHEM_TRADITIONAL_IUPAC>  (1) 
tetrahydrofolic acid

>  <JCHEM_VEBER_RULE>  (1) 
1

>  <DRUGBANK_ID>  (1) 
DB00658

>  <SECONDARY_ACCESSION_NUMBERS>  (1) 
APRD01226

>  <DRUG_GROUPS>  (1) 
approved; investigational

>  <GENERIC_NAME>  (1) 
Sevelamer

>  <SYNONYMS>  (1) 
Sévélamer; Sevelamer; Sevelamero; Sevelamerum

>  <PRODUCTS>  (1) 
Accel-sevelamer; Intelli-sevelamer; Renagel; Renvela; Sevelamer Carbonate; Sevelamer Carbonate For Oral Suspension; Sevelamer Carbonate Zentiva; Sevelamer Carbonate for Oral Suspension; Sevelamer Hydrochloride; Sevelamer carbonate; Sevelamer hydrochloride; Tasermity

>  <INTERNATIONAL_BRANDS>  (1) 
Phosblock

>  <SALTS>  (1) 
Sevelamer carbonate; Sevelamer hydrochloride

$$$$
