
     RDKit          2D

 12 10  0  0  0  0  0  0  0  0999 V2000
   -0.2624    0.4124    0.0000 C   0  0  0  0  0  0  0  0  0  0  0  0
   -1.0876    0.4124    0.0000 P   0  0  0  0  0  0  0  0  0  0  0  0
   -0.2707   -0.4125    0.0000 P   0  0  0  0  0  0  0  0  0  0  0  0
   -0.9834   -0.8251    0.0000 O   0  0  0  0  0  0  0  0  0  0  0  0
   -1.5083    1.1250    0.0000 O   0  0  0  0  0  0  0  0  0  0  0  0
   -0.2582    1.2375    0.0000 O   0  0  0  0  0  0  0  0  0  0  0  0
   -0.2707   -1.2376    0.0000 O   0  0  0  0  0  0  0  0  0  0  0  0
    0.4417   -0.8251    0.0000 O   0  0  0  0  0  0  0  0  0  0  0  0
   -1.5083   -0.3000    0.0000 O   0  0  0  0  0  0  0  0  0  0  0  0
   -1.9126    0.4124    0.0000 O   0  0  0  0  0  0  0  0  0  0  0  0
    0.5625    0.4124    0.0000 C   0  0  0  0  0  0  0  0  0  0  0  0
    1.9126    0.3124    0.0000 Tc  0  0  0  0  0 15  0  0  0  0  0  0
  2  1  1  0
  3  1  1  0
  4  3  2  0
  5  2  2  0
  6  1  1  0
  7  3  1  0
  8  3  1  0
  9  2  1  0
 10  2  1  0
 11  1  1  0
M  ISO  1  12  99
M  END
>  <DATABASE_ID>  (1) 
DB09411

>  <DATABASE_NAME>  (1) 
drugbank

>  <SMILES>  (1) 
[99Tc].CC(O)(P(O)(O)=O)P(O)(O)=O

>  <INCHI_IDENTIFIER>  (1) 
InChI=1S/C2H8O7P2.Tc/c1-2(3,10(4,5)6)11(7,8)9;/h3H,1H3,(H2,4,5,6)(H2,7,8,9);/i;1+2

>  <INCHI_KEY>  (1) 
VEXMHRQGHKTMHQ-NLQOEHMXSA-N

>  <FORMULA>  (1) 
C2H8O7P2Tc

>  <MOLECULAR_WEIGHT>  (1) 
304.933

>  <EXACT_MASS>  (1) 
304.880781148

>  <JCHEM_ACCEPTOR_COUNT>  (1) 
7

>  <JCHEM_ATOM_COUNT>  (1) 
20

>  <JCHEM_AVERAGE_NEUTRAL_MICROSPECIES_CHARGE>  (1) 
-2.5435710105197544

>  <JCHEM_AVERAGE_POLARIZABILITY>  (1) 
13.639725560284905

>  <JCHEM_BIOAVAILABILITY>  (1) 
1

>  <JCHEM_DONOR_COUNT>  (1) 
5

>  <JCHEM_FORMAL_CHARGE>  (1) 
0

>  <JCHEM_GHOSE_FILTER>  (1) 
0

>  <JCHEM_IUPAC>  (1) 
(1-hydroxy-1-phosphonoethyl)phosphonic acid (99Tc)technetium

>  <ALOGPS_LOGP>  (1) 
-0.77

>  <JCHEM_LOGP>  (1) 
-2.2774973313333327

>  <ALOGPS_LOGS>  (1) 
-1.25

>  <JCHEM_MDDR_LIKE_RULE>  (1) 
0

>  <JCHEM_NEUTRAL_CHARGE>  (1) 
-3

>  <JCHEM_NUMBER_OF_RINGS>  (1) 
0

>  <JCHEM_PHYSIOLOGICAL_CHARGE>  (1) 
-3

>  <JCHEM_PKA>  (1) 
1.4590138001772863

>  <JCHEM_PKA_STRONGEST_ACIDIC>  (1) 
0.6962425108147459

>  <JCHEM_PKA_STRONGEST_BASIC>  (1) 
-5.0836442552386245

>  <JCHEM_POLAR_SURFACE_AREA>  (1) 
135.29000000000002

>  <JCHEM_REFRACTIVITY>  (1) 
34.510999999999996

>  <JCHEM_ROTATABLE_BOND_COUNT>  (1) 
2

>  <JCHEM_RULE_OF_FIVE>  (1) 
1

>  <ALOGPS_SOLUBILITY>  (1) 
1.15e+01 g/l

>  <JCHEM_TRADITIONAL_IUPAC>  (1) 
Pam2CSK4

>  <JCHEM_VEBER_RULE>  (1) 
0

>  <DRUGBANK_ID>  (1) 
DB09411

>  <DRUG_GROUPS>  (1) 
approved

>  <GENERIC_NAME>  (1) 
Technetium Tc-99m etidronate

>  <SYNONYMS>  (1) 
Technetium (99mTc) etidronate; Technetium Tc 99m etidronate; Technetium Tc-99m etidronate

$$$$
