
     RDKit          2D

  5  4  0  0  0  0  0  0  0  0999 V2000
    0.0000    0.0000    0.0000 Se  0  0  0  0  0  6  0  0  0  0  0  0
    0.0000    0.8250    0.0000 O   0  0  0  0  0  0  0  0  0  0  0  0
    0.8250    0.0000    0.0000 O   0  0  0  0  0  0  0  0  0  0  0  0
    0.0000   -0.8250    0.0000 O   0  0  0  0  0  0  0  0  0  0  0  0
   -0.8250    0.0000    0.0000 O   0  0  0  0  0  0  0  0  0  0  0  0
  2  1  1  0
  3  1  1  0
  4  1  2  0
  5  1  2  0
M  END
>  <DATABASE_ID>  (1) 
DB11068

>  <DATABASE_NAME>  (1) 
drugbank

>  <SMILES>  (1) 
O[Se](O)(=O)=O

>  <INCHI_IDENTIFIER>  (1) 
InChI=1S/H2O4Se/c1-5(2,3)4/h(H2,1,2,3,4)

>  <INCHI_KEY>  (1) 
QYHFIVBSNOWOCQ-UHFFFAOYSA-N

>  <FORMULA>  (1) 
H2O4Se

>  <MOLECULAR_WEIGHT>  (1) 
144.97

>  <EXACT_MASS>  (1) 
145.91183038

>  <JCHEM_ACCEPTOR_COUNT>  (1) 
5

>  <JCHEM_ATOM_COUNT>  (1) 
7

>  <JCHEM_AVERAGE_POLARIZABILITY>  (1) 
6.64617830742462

>  <JCHEM_BIOAVAILABILITY>  (1) 
1

>  <JCHEM_DONOR_COUNT>  (1) 
2

>  <JCHEM_FORMAL_CHARGE>  (1) 
0

>  <JCHEM_GHOSE_FILTER>  (1) 
0

>  <JCHEM_IUPAC>  (1) 
selenic acid

>  <JCHEM_LOGP>  (1) 
-1.6279

>  <JCHEM_MDDR_LIKE_RULE>  (1) 
0

>  <JCHEM_NUMBER_OF_RINGS>  (1) 
0

>  <JCHEM_PHYSIOLOGICAL_CHARGE>  (1) 
-2

>  <JCHEM_PKA>  (1) 
1.8010299956639813

>  <JCHEM_PKA_STRONGEST_ACIDIC>  (1) 
-3.8010299956639804

>  <JCHEM_POLAR_SURFACE_AREA>  (1) 
74.6

>  <JCHEM_REFRACTIVITY>  (1) 
21.1299

>  <JCHEM_ROTATABLE_BOND_COUNT>  (1) 
0

>  <JCHEM_RULE_OF_FIVE>  (1) 
1

>  <JCHEM_TRADITIONAL_IUPAC>  (1) 
selenic acid

>  <JCHEM_VEBER_RULE>  (1) 
0

>  <DRUGBANK_ID>  (1) 
DB11068

>  <DRUG_GROUPS>  (1) 
approved

>  <GENERIC_NAME>  (1) 
Selenic acid

>  <PRODUCTS>  (1) 
Balance Ace - Cap; Beta A With Vitamins C and E Plus Selenium; Cavan Heme OB; Cell-wise Natural Source; Centrum Specialist Prenatal; Corvita; Duet DHA Balanced; HemeNatal OB; HemeNatal OB plus DHA; High Potency Multivitamins & Minerals Caplets; K.L. Vitamin-mineral; Materna; OBTREX DHA Combo Pack; Obstetrix DHA Combo Pack; Obstetrix EC; Ocuvite Tab; One Daily Vitamin and Mineral Dietary Supplement; One Tablet Daily Mens Formula; One-A-day Advance Men's; Optivite Vitamin and Mineral Supplement Tablet; Paire OB Plus DHA; PreferaOB; PreferaOB plus DHA; Prenatal and Post Partum Supplement; Super-A Vitamins With Selenium Dietary Supplement; Total Living Concepts Formula One - Tab; Ultimate OB DHA; Vp-heme Ob; Vp-heme Ob DHA

>  <SALTS>  (1) 
Sodium selenate

$$$$
