
     RDKit          2D

 23 23  0  0  0  0  0  0  0  0999 V2000
    1.6725   -1.2028    0.0000 O   0  0  0  0  0  0  0  0  0  0  0  0
    1.4193   -0.4231    0.0000 C   0  0  0  0  0  0  0  0  0  0  0  0
    1.9057    0.2432    0.0000 C   0  0  0  0  0  0  0  0  0  0  0  0
    2.6187   -0.1632    0.0000 H   0  0  0  0  0  0  0  0  0  0  0  0
    2.6187    0.6563    0.0000 C   0  0  0  0  0  0  0  0  0  0  0  0
    3.0319   -0.0565    0.0000 H   0  0  0  0  0  0  0  0  0  0  0  0
    2.2056    1.3759    0.0000 O   0  0  0  0  0  0  0  0  0  0  0  0
    3.3318    1.0694    0.0000 C   0  0  0  0  0  0  0  0  0  0  0  0
    3.3318    1.8957    0.0000 O   0  0  0  0  0  0  0  0  0  0  0  0
    1.4193    0.9162    0.0000 O   0  0  0  0  0  0  0  0  0  0  0  0
    0.6330    0.6563    0.0000 C   0  0  0  0  0  0  0  0  0  0  0  0
   -0.0333    1.1427    0.0000 O   0  0  0  0  0  0  0  0  0  0  0  0
    0.6330   -0.1632    0.0000 C   0  0  0  0  0  0  0  0  0  0  0  0
   -0.0333   -0.6496    0.0000 O   0  0  0  0  0  0  0  0  0  0  0  0
   -1.6859   -1.1827    0.0000 C   0  0  0  0  0  0  0  0  0  0  0  0
   -2.0923   -0.4698    0.0000 C   0  0  0  0  0  0  0  0  0  0  0  0
   -1.6859    0.2432    0.0000 C   0  0  0  0  0  0  0  0  0  0  0  0
   -2.0923    0.9628    0.0000 C   0  0  0  0  0  0  0  0  0  0  0  0
   -2.9185    0.9628    0.0000 C   0  0  0  0  0  0  0  0  0  0  0  0
   -3.3318    0.2432    0.0000 N   0  0  0  0  0  0  0  0  0  0  0  0
   -2.9185   -0.4698    0.0000 C   0  0  0  0  0  0  0  0  0  0  0  0
   -2.0923   -1.8957    0.0000 O   0  0  0  0  0  0  0  0  0  0  0  0
   -0.8596   -1.1827    0.0000 N   0  0  0  0  0  0  0  0  0  0  0  0
  1  2  1  0
  2  3  1  0
  2 13  2  0
  3  4  1  1
  3  5  1  0
  3 10  1  0
  5  6  1  6
  5  7  1  0
  5  8  1  0
  8  9  1  0
 10 11  1  0
 11 12  2  0
 11 13  1  0
 13 14  1  0
 15 16  1  0
 15 22  2  0
 15 23  1  0
 16 17  2  0
 16 21  1  0
 17 18  1  0
 18 19  2  0
 19 20  1  0
 20 21  2  0
M  END
>  <DATABASE_ID>  (1) 
DB14486

>  <DATABASE_NAME>  (1) 
drugbank

>  <SMILES>  (1) 
NC(=O)C1=CN=CC=C1.[H]C(O)(CO)[C@@]1([H])OC(=O)C(O)=C1O

>  <INCHI_IDENTIFIER>  (1) 
InChI=1S/C6H6N2O.C6H8O6/c7-6(9)5-2-1-3-8-4-5;7-1-2(8)5-3(9)4(10)6(11)12-5/h1-4H,(H2,7,9);2,5,7-10H,1H2/t;2-,5+/m.0/s1

>  <INCHI_KEY>  (1) 
JMORAWFVNMGOKQ-MGMRMFRLSA-N

>  <FORMULA>  (1) 
C12H14N2O7

>  <MOLECULAR_WEIGHT>  (1) 
298.251

>  <EXACT_MASS>  (1) 
298.080100799

>  <JCHEM_ACCEPTOR_COUNT>  (1) 
5

>  <JCHEM_ATOM_COUNT>  (1) 
35

>  <JCHEM_AVERAGE_POLARIZABILITY>  (1) 
15.02716201164992

>  <JCHEM_BIOAVAILABILITY>  (1) 
1

>  <JCHEM_DONOR_COUNT>  (1) 
4

>  <JCHEM_FORMAL_CHARGE>  (1) 
0

>  <JCHEM_GHOSE_FILTER>  (1) 
0

>  <JCHEM_IUPAC>  (1) 
(5R)-5-(1,2-dihydroxyethyl)-3,4-dihydroxy-2,5-dihydrofuran-2-one; pyridine-3-carboxamide

>  <ALOGPS_LOGP>  (1) 
-1.58

>  <JCHEM_LOGP>  (1) 
-1.9135588756666668

>  <ALOGPS_LOGS>  (1) 
0.14

>  <JCHEM_MDDR_LIKE_RULE>  (1) 
0

>  <JCHEM_NUMBER_OF_RINGS>  (1) 
2

>  <JCHEM_PHYSIOLOGICAL_CHARGE>  (1) 
-1

>  <JCHEM_PKA>  (1) 
11.194691755527732

>  <JCHEM_PKA_STRONGEST_ACIDIC>  (1) 
4.359917400580226

>  <JCHEM_PKA_STRONGEST_BASIC>  (1) 
-2.979728932431362

>  <JCHEM_POLAR_SURFACE_AREA>  (1) 
107.22000000000001

>  <JCHEM_REFRACTIVITY>  (1) 
37.0321

>  <JCHEM_ROTATABLE_BOND_COUNT>  (1) 
3

>  <JCHEM_RULE_OF_FIVE>  (1) 
1

>  <ALOGPS_SOLUBILITY>  (1) 
2.45e+02 g/l

>  <JCHEM_TRADITIONAL_IUPAC>  (1) 
(5R)-5-(1,2-dihydroxyethyl)-3,4-dihydroxy-5H-furan-2-one; nicotinamide

>  <JCHEM_VEBER_RULE>  (1) 
0

>  <DRUGBANK_ID>  (1) 
DB14486

>  <SECONDARY_ACCESSION_NUMBERS>  (1) 
DBSALT002426

>  <DRUG_GROUPS>  (1) 
approved; nutraceutical; withdrawn

>  <GENERIC_NAME>  (1) 
Niacinamide ascorbate

>  <SYNONYMS>  (1) 
Ascorbic acid nicotinamide complex; Niacinamide ascorbate; Nicotinamide-ascorbic acid complex

>  <PRODUCTS>  (1) 
Daily Balance Tab; Multiple Vitamins With Iron Tablets; Nutrifer Plus Tablets; Paramettes Adults; Se-Natal; Se-Natal One; Stress B Complex With C and E Tab; Stress B Complex With C, E and Iron Tab; Stress B Complex With C,e, Zinc and Copper; Stress B-complex Plus Iron With Vitamins C&e

$$$$
