
     RDKit          2D

 48 52  0  0  1  0  0  0  0  0999 V2000
    1.4289   -0.8250    0.0000 H   0  0  0  0  0  0  0  0  0  0  0  0
    0.7145   -1.2375    0.0000 C   0  0  0  0  0  0  0  0  0  0  0  0
    0.0000   -1.6500    0.0000 C   0  0  0  0  0  0  0  0  0  0  0  0
   -0.7145   -1.2375    0.0000 O   0  0  0  0  0  0  0  0  0  0  0  0
   -0.7145   -0.4125    0.0000 C   0  0  0  0  0  0  0  0  0  0  0  0
    0.0000   -0.0000    0.0000 C   0  0  0  0  0  0  0  0  0  0  0  0
    0.7145   -0.4125    0.0000 N   0  0  0  0  0  0  0  0  0  0  0  0
    1.4289   -0.0000    0.0000 C   0  0  0  0  0  0  0  0  0  0  0  0
    2.1434   -0.4125    0.0000 C   0  0  0  0  0  0  0  0  0  0  0  0
    2.8579   -0.0000    0.0000 C   0  0  0  0  0  0  0  0  0  0  0  0
    3.5724   -0.4125    0.0000 O   0  0  0  0  0  0  0  0  0  0  0  0
    2.1434   -1.2375    0.0000 N   0  0  0  0  0  0  0  0  0  0  0  0
    1.4289   -1.6500    0.0000 C   0  0  0  0  0  0  0  0  0  0  0  0
    2.8579   -1.6500    0.0000 C   0  0  0  0  0  0  0  0  0  0  0  0
    3.5724   -1.2375    0.0000 C   0  0  0  0  0  0  0  0  0  0  0  0
    4.2868   -1.6500    0.0000 C   0  0  0  0  0  0  0  0  0  0  0  0
    4.2868   -2.4750    0.0000 C   0  0  0  0  0  0  0  0  0  0  0  0
    3.5724   -2.8875    0.0000 C   0  0  0  0  0  0  0  0  0  0  0  0
    2.8579   -2.4750    0.0000 N   0  0  0  0  0  0  0  0  0  0  0  0
    5.0013   -2.8875    0.0000 N   0  0  0  0  0  0  0  0  0  0  0  0
    5.7158   -2.4750    0.0000 C   0  0  0  0  0  0  0  0  0  0  0  0
    5.0013   -3.7125    0.0000 C   0  0  0  0  0  0  0  0  0  0  0  0
    4.2868   -4.1250    0.0000 O   0  0  0  0  0  0  0  0  0  0  0  0
    5.7158   -4.1250    0.0000 C   0  0  0  0  0  0  0  0  0  0  0  0
    5.3033   -4.8395    0.0000 C   0  0  0  0  0  0  0  0  0  0  0  0
    6.1283   -3.4105    0.0000 C   0  0  0  0  0  0  0  0  0  0  0  0
    6.4302   -4.5375    0.0000 C   0  0  0  0  0  0  0  0  0  0  0  0
    7.1447   -4.1250    0.0000 C   0  0  0  0  0  0  0  0  0  0  0  0
    7.8592   -4.5375    0.0000 C   0  0  0  0  0  0  0  0  0  0  0  0
    7.8592   -5.3625    0.0000 C   0  0  0  0  0  0  0  0  0  0  0  0
    7.1447   -5.7750    0.0000 C   0  0  0  0  0  0  0  0  0  0  0  0
    6.4302   -5.3625    0.0000 C   0  0  0  0  0  0  0  0  0  0  0  0
    7.1447   -6.6000    0.0000 C   0  0  0  0  0  0  0  0  0  0  0  0
    7.1447   -7.4250    0.0000 F   0  0  0  0  0  0  0  0  0  0  0  0
    6.3197   -6.6000    0.0000 F   0  0  0  0  0  0  0  0  0  0  0  0
    7.9697   -6.6000    0.0000 F   0  0  0  0  0  0  0  0  0  0  0  0
    8.5737   -4.1250    0.0000 C   0  0  0  0  0  0  0  0  0  0  0  0
    9.2881   -3.7125    0.0000 F   0  0  0  0  0  0  0  0  0  0  0  0
    8.9862   -4.8395    0.0000 F   0  0  0  0  0  0  0  0  0  0  0  0
    8.1612   -3.4105    0.0000 F   0  0  0  0  0  0  0  0  0  0  0  0
    5.0013   -1.2375    0.0000 C   0  0  0  0  0  0  0  0  0  0  0  0
    5.7158   -1.6500    0.0000 C   0  0  0  0  0  0  0  0  0  0  0  0
    6.4302   -1.2375    0.0000 C   0  0  0  0  0  0  0  0  0  0  0  0
    6.4302   -0.4125    0.0000 C   0  0  0  0  0  0  0  0  0  0  0  0
    7.1447   -0.0000    0.0000 F   0  0  0  0  0  0  0  0  0  0  0  0
    5.7158   -0.0000    0.0000 C   0  0  0  0  0  0  0  0  0  0  0  0
    5.0013   -0.4125    0.0000 C   0  0  0  0  0  0  0  0  0  0  0  0
    4.2868   -0.0000    0.0000 C   0  0  0  0  0  0  0  0  0  0  0  0
  2  1  1  6
  2  3  1  0
  3  4  1  0
  4  5  1  0
  5  6  1  0
  6  7  1  0
  2  7  1  0
  7  8  1  0
  9  8  1  0
  9 10  1  1
 10 11  1  0
  9 12  1  0
 12 13  1  0
  2 13  1  0
 12 14  1  0
 14 15  2  0
 15 16  1  0
 16 17  2  0
 17 18  1  0
 18 19  2  0
 14 19  1  0
 17 20  1  0
 20 21  1  0
 20 22  1  0
 22 23  2  0
 22 24  1  0
 24 25  1  0
 24 26  1  0
 24 27  1  0
 27 28  2  0
 28 29  1  0
 29 30  2  0
 30 31  1  0
 31 32  2  0
 27 32  1  0
 31 33  1  0
 33 34  1  0
 33 35  1  0
 33 36  1  0
 29 37  1  0
 37 38  1  0
 37 39  1  0
 37 40  1  0
 16 41  1  0
 41 42  2  0
 42 43  1  0
 43 44  2  0
 44 45  1  0
 44 46  1  0
 46 47  2  0
 41 47  1  0
 47 48  1  0
M  END
>  <DATABASE_ID>  (1) 
DB18968

>  <DATABASE_NAME>  (1) 
drugbank

>  <SMILES>  (1) 
[H][C@]12COCCN1C[C@@H](CO)N(C2)C1=CC(=C(C=N1)N(C)C(=O)C(C)(C)C1=CC(=CC(=C1)C(F)(F)F)C(F)(F)F)C1=CC=C(F)C=C1C

>  <INCHI_IDENTIFIER>  (1) 
InChI=1S/C33H35F7N4O3/c1-19-9-23(34)5-6-26(19)27-13-29(44-16-25-18-47-8-7-43(25)15-24(44)17-45)41-14-28(27)42(4)30(46)31(2,3)20-10-21(32(35,36)37)12-22(11-20)33(38,39)40/h5-6,9-14,24-25,45H,7-8,15-18H2,1-4H3/t24-,25-/m0/s1

>  <INCHI_KEY>  (1) 
DWRIJNIPBUFCQS-DQEYMECFSA-N

>  <FORMULA>  (1) 
C33H35F7N4O3

>  <MOLECULAR_WEIGHT>  (1) 
668.657

>  <EXACT_MASS>  (1) 
668.259738144

>  <DRUGBANK_ID>  (1) 
DB18968

>  <DRUG_GROUPS>  (1) 
approved; investigational

>  <GENERIC_NAME>  (1) 
Elinzanetant

>  <SYNONYMS>  (1) 
2-(3,5-bis(trifluoromethyl)phenyl)-n-(4-(4-fluoro-2-methylphenyl)-6-((7s,9as)-7-(hydroxymethyl)hexahydropyrazino(2,1-c)(1,4)oxazin-8(1h)-yl)-3-pyridinyl)-n,2-dimethylpropanamide; Benzamide, 3-(5-methyl-2-tbenzeneacetamide, n-(4-(4-fluoro-2-methylphenyl)-6-((7s,9as)-hexahydro-7-(hydroxymethyl)pyrazino(2,1-c)(1,4)oxazin-8(1h)-yl)-3-pyridinyl)-n,.alpha.,.alpha.-trimethyl-3,5-bis(trifluoromethyl)-; Elinzanetant

>  <PRODUCTS>  (1) 
Lynkuet

$$$$
