
     RDKit          2D

 12 11  0  0  1  0  0  0  0  0999 V2000
    1.0461    1.4289    0.0000 O   0  0  0  0  0  0  0  0  0  0  0  0
    1.7605    1.8414    0.0000 C   0  0  0  0  0  0  0  0  0  0  0  0
    2.4750    1.4289    0.0000 C   0  0  0  0  0  0  0  0  0  0  0  0
    2.4750    0.6039    0.0000 O   0  0  0  0  0  0  0  0  0  0  0  0
    3.1895    1.8414    0.0000 C   0  0  0  0  0  0  0  0  0  0  0  0
    3.1895    2.6664    0.0000 O   0  0  0  0  0  0  0  0  0  0  0  0
    3.9039    1.4289    0.0000 C   0  0  0  0  0  0  0  0  0  0  0  0
    3.9039    0.6039    0.0000 O   0  0  0  0  0  0  0  0  0  0  0  0
    4.6184    1.8414    0.0000 C   0  0  0  0  0  0  0  0  0  0  0  0
    4.6184    2.6664    0.0000 O   0  0  0  0  0  0  0  0  0  0  0  0
    5.3329    1.4289    0.0000 C   0  0  0  0  0  0  0  0  0  0  0  0
    6.0474    1.8414    0.0000 O   0  0  0  0  0  0  0  0  0  0  0  0
  1  2  1  0
  2  3  1  0
  3  4  1  1
  3  5  1  0
  5  6  1  1
  5  7  1  0
  7  8  1  1
  7  9  1  0
  9 10  1  6
  9 11  1  0
 11 12  1  0
M  END
>  <DATABASE_ID>  (1) 
DB01638

>  <DATABASE_NAME>  (1) 
drugbank

>  <SMILES>  (1) 
OC[C@H](O)[C@@H](O)[C@H](O)[C@H](O)CO

>  <INCHI_IDENTIFIER>  (1) 
InChI=1S/C6H14O6/c7-1-3(9)5(11)6(12)4(10)2-8/h3-12H,1-2H2/t3-,4+,5-,6-/m1/s1

>  <INCHI_KEY>  (1) 
FBPFZTCFMRRESA-JGWLITMVSA-N

>  <FORMULA>  (1) 
C6H14O6

>  <MOLECULAR_WEIGHT>  (1) 
182.1718

>  <EXACT_MASS>  (1) 
182.07903818

>  <JCHEM_ACCEPTOR_COUNT>  (1) 
6

>  <JCHEM_ATOM_COUNT>  (1) 
26

>  <JCHEM_AVERAGE_NEUTRAL_MICROSPECIES_CHARGE>  (1) 
-3.2895295228112587e-06

>  <JCHEM_AVERAGE_POLARIZABILITY>  (1) 
17.12411136029489

>  <JCHEM_BIOAVAILABILITY>  (1) 
1

>  <JCHEM_DONOR_COUNT>  (1) 
6

>  <JCHEM_FORMAL_CHARGE>  (1) 
0

>  <JCHEM_GHOSE_FILTER>  (1) 
0

>  <JCHEM_IUPAC>  (1) 
(2R,3R,4R,5S)-hexane-1,2,3,4,5,6-hexol

>  <ALOGPS_LOGP>  (1) 
-2.68

>  <JCHEM_LOGP>  (1) 
-3.7300188486666666

>  <ALOGPS_LOGS>  (1) 
0.10

>  <JCHEM_MDDR_LIKE_RULE>  (1) 
0

>  <JCHEM_NEUTRAL_CHARGE>  (1) 
0

>  <JCHEM_NUMBER_OF_RINGS>  (1) 
0

>  <JCHEM_PHYSIOLOGICAL_CHARGE>  (1) 
0

>  <JCHEM_PKA>  (1) 
13.37874915684328

>  <JCHEM_PKA_STRONGEST_ACIDIC>  (1) 
12.585200956788803

>  <JCHEM_PKA_STRONGEST_BASIC>  (1) 
-2.974211614825128

>  <JCHEM_POLAR_SURFACE_AREA>  (1) 
121.38000000000001

>  <JCHEM_REFRACTIVITY>  (1) 
38.4036

>  <JCHEM_ROTATABLE_BOND_COUNT>  (1) 
5

>  <JCHEM_RULE_OF_FIVE>  (1) 
0

>  <ALOGPS_SOLUBILITY>  (1) 
2.29e+02 g/l

>  <JCHEM_TRADITIONAL_IUPAC>  (1) 
tetrahydrofolic acid

>  <JCHEM_VEBER_RULE>  (1) 
0

>  <DRUGBANK_ID>  (1) 
DB01638

>  <SECONDARY_ACCESSION_NUMBERS>  (1) 
EXPT02939; DB09391

>  <DRUG_GROUPS>  (1) 
approved; investigational

>  <GENERIC_NAME>  (1) 
Sorbitol

>  <SYNONYMS>  (1) 
(−)-sorbitol; D-(−)-sorbitol; D-glucitol; D-Sorbit; D-Sorbitol; G-ol; L-Gulitol; Sorbitol

>  <PRODUCTS>  (1) 
CHI. JOA (Anti-inflammatory effect, antibacterial effect, stomatitis improvement, plaque removal); Char-flo With Sorbitol - Sus; Cleanse Gut And Colon; Cream; Cystosol W 3% Hexitols; Fluad Tetra; GeriCare Sorbitol Solution; Microlax Enema; Microlax Micro Enema; Microlax Micro-enema; Salivart Aer; Sorbitol; Sorbitol Mannitol Irrigation; Sorbitol Rougier Pws 5gm; Sorbitol-Mannitol; Trofresh; Turmeric Kojic Acid Soad

$$$$
