
     RDKit          2D

  6  4  0  0  0  0  0  0  0  0999 V2000
    0.0000    0.0000    0.0000 Al  0  0  0  0  0 15  0  0  0  0  0  0
    2.8286   -0.8250    0.0000 O   0  0  0  0  0  0  0  0  0  0  0  0
    2.8286    0.0000    0.0000 P   0  0  0  0  0  0  0  0  0  0  0  0
    2.8286    0.8250    0.0000 O   0  0  0  0  0  0  0  0  0  0  0  0
    3.6536    0.0000    0.0000 O   0  0  0  0  0  0  0  0  0  0  0  0
    2.0036    0.0000    0.0000 O   0  0  0  0  0  0  0  0  0  0  0  0
  2  3  1  0
  3  4  1  0
  3  5  1  0
  3  6  2  0
M  CHG  4   1   3   2  -1   4  -1   5  -1
M  END
>  <DATABASE_ID>  (1) 
DB14517

>  <DATABASE_NAME>  (1) 
drugbank

>  <SMILES>  (1) 
[Al+3].[O-]P([O-])([O-])=O

>  <INCHI_IDENTIFIER>  (1) 
InChI=1S/Al.H3O4P/c;1-5(2,3)4/h;(H3,1,2,3,4)/q+3;/p-3

>  <INCHI_KEY>  (1) 
ILRRQNADMUWWFW-UHFFFAOYSA-K

>  <FORMULA>  (1) 
AlO4P

>  <MOLECULAR_WEIGHT>  (1) 
121.9529

>  <EXACT_MASS>  (1) 
121.934958441

>  <JCHEM_ACCEPTOR_COUNT>  (1) 
4

>  <JCHEM_ATOM_COUNT>  (1) 
6

>  <JCHEM_AVERAGE_POLARIZABILITY>  (1) 
4.932137383430437

>  <JCHEM_BIOAVAILABILITY>  (1) 
1

>  <JCHEM_DONOR_COUNT>  (1) 
0

>  <JCHEM_FORMAL_CHARGE>  (1) 
0

>  <JCHEM_GHOSE_FILTER>  (1) 
0

>  <JCHEM_IUPAC>  (1) 
aluminium(3+) phosphate

>  <JCHEM_LOGP>  (1) 
-1.0201038226666665

>  <JCHEM_MDDR_LIKE_RULE>  (1) 
0

>  <JCHEM_NUMBER_OF_RINGS>  (1) 
0

>  <JCHEM_PHYSIOLOGICAL_CHARGE>  (1) 
-2

>  <JCHEM_PKA>  (1) 
6.951626889535468

>  <JCHEM_PKA_STRONGEST_ACIDIC>  (1) 
1.7961261340181292

>  <JCHEM_POLAR_SURFACE_AREA>  (1) 
86.25

>  <JCHEM_REFRACTIVITY>  (1) 
11.2868

>  <JCHEM_ROTATABLE_BOND_COUNT>  (1) 
0

>  <JCHEM_RULE_OF_FIVE>  (1) 
1

>  <JCHEM_TRADITIONAL_IUPAC>  (1) 
aluminium phosphate

>  <JCHEM_VEBER_RULE>  (1) 
0

>  <DRUGBANK_ID>  (1) 
DB14517

>  <SECONDARY_ACCESSION_NUMBERS>  (1) 
DBSALT002422

>  <DRUG_GROUPS>  (1) 
approved; investigational

>  <GENERIC_NAME>  (1) 
Aluminium phosphate

>  <SYNONYMS>  (1) 
AlPO4; Aluminium phosphate; Aluminum phosphate

>  <PRODUCTS>  (1) 
Gelfos; Gelfos M; Gelfos-M; Gelfose; Gelfose M

$$$$
