
     RDKit          2D

  9  9  0  0  0  0  0  0  0  0999 V2000
    2.1434   -0.4125    0.0000 C   0  0  0  0  0  0  0  0  0  0  0  0
    0.7145    2.0625    0.0000 C   0  0  0  0  0  0  0  0  0  0  0  0
   -0.7145   -0.4125    0.0000 C   0  0  0  0  0  0  0  0  0  0  0  0
    1.4289    0.0000    0.0000 C   0  0  0  0  0  0  0  0  0  0  0  0
    0.7145    1.2375    0.0000 C   0  0  0  0  0  0  0  0  0  0  0  0
    0.0000    0.0000    0.0000 C   0  0  0  0  0  0  0  0  0  0  0  0
    1.4289    0.8250    0.0000 O   0  0  0  0  0  0  0  0  0  0  0  0
    0.7145   -0.4125    0.0000 O   0  0  0  0  0  0  0  0  0  0  0  0
    0.0000    0.8250    0.0000 O   0  0  0  0  0  0  0  0  0  0  0  0
  4  1  1  0
  5  2  1  0
  6  3  1  0
  7  4  1  0
  7  5  1  0
  8  4  1  0
  8  6  1  0
  9  5  1  0
  9  6  1  0
M  END
>  <DATABASE_ID>  (1) 
DB09117

>  <DATABASE_NAME>  (1) 
drugbank

>  <SMILES>  (1) 
CC1OC(C)OC(C)O1

>  <INCHI_IDENTIFIER>  (1) 
InChI=1S/C6H12O3/c1-4-7-5(2)9-6(3)8-4/h4-6H,1-3H3

>  <INCHI_KEY>  (1) 
SQYNKIJPMDEDEG-UHFFFAOYSA-N

>  <FORMULA>  (1) 
C6H12O3

>  <MOLECULAR_WEIGHT>  (1) 
132.1577

>  <EXACT_MASS>  (1) 
132.07864425

>  <JCHEM_ACCEPTOR_COUNT>  (1) 
3

>  <JCHEM_ATOM_COUNT>  (1) 
21

>  <JCHEM_AVERAGE_NEUTRAL_MICROSPECIES_CHARGE>  (1) 
1.126009546744711e-11

>  <JCHEM_AVERAGE_POLARIZABILITY>  (1) 
14.150803163627053

>  <JCHEM_BIOAVAILABILITY>  (1) 
1

>  <JCHEM_DONOR_COUNT>  (1) 
0

>  <JCHEM_FORMAL_CHARGE>  (1) 
0

>  <JCHEM_GHOSE_FILTER>  (1) 
0

>  <JCHEM_IUPAC>  (1) 
2,4,6-trimethyl-1,3,5-trioxane

>  <ALOGPS_LOGP>  (1) 
0.33

>  <JCHEM_LOGP>  (1) 
0.8779749530000001

>  <ALOGPS_LOGS>  (1) 
0.13

>  <JCHEM_MDDR_LIKE_RULE>  (1) 
0

>  <JCHEM_NEUTRAL_CHARGE>  (1) 
0

>  <JCHEM_NUMBER_OF_RINGS>  (1) 
1

>  <JCHEM_PHYSIOLOGICAL_CHARGE>  (1) 
0

>  <JCHEM_PKA_STRONGEST_BASIC>  (1) 
-4.0316438199655655

>  <JCHEM_POLAR_SURFACE_AREA>  (1) 
27.69

>  <JCHEM_REFRACTIVITY>  (1) 
32.085899999999995

>  <JCHEM_ROTATABLE_BOND_COUNT>  (1) 
0

>  <JCHEM_RULE_OF_FIVE>  (1) 
1

>  <ALOGPS_SOLUBILITY>  (1) 
1.77e+02 g/l

>  <JCHEM_TRADITIONAL_IUPAC>  (1) 
biotin

>  <JCHEM_VEBER_RULE>  (1) 
1

>  <DRUGBANK_ID>  (1) 
DB09117

>  <DRUG_GROUPS>  (1) 
approved; withdrawn

>  <GENERIC_NAME>  (1) 
Paraldehyde

>  <SYNONYMS>  (1) 
Paraldehyde

>  <PRODUCTS>  (1) 
Paraldehyde Inj Bp 100%; Paraldehyde Injection BP

$$$$
