
     RDKit          2D

 11  8  0  0  0  0  0  0  0  0999 V2000
    0.4812   -0.5954    0.0000 C   0  0  0  0  0  0  0  0  0  0  0  0
    0.0688    0.1191    0.0000 C   0  0  0  0  0  0  0  0  0  0  0  0
    0.4813    0.8335    0.0000 O   0  0  0  0  0  0  0  0  0  0  0  0
   -0.7563    0.1191    0.0000 O   0  0  0  0  0  0  0  0  0  0  0  0
    1.3062   -0.5954    0.0000 N   0  0  0  0  0  0  0  0  0  0  0  0
    4.4884    0.5716    0.0000 C   0  0  0  0  0  0  0  0  0  0  0  0
    4.9009   -0.1429    0.0000 C   0  0  0  0  0  0  0  0  0  0  0  0
    5.7259   -0.1429    0.0000 O   0  0  0  0  0  0  0  0  0  0  0  0
    4.4884   -0.8574    0.0000 O   0  0  0  0  0  0  0  0  0  0  0  0
    3.6634    0.5716    0.0000 N   0  0  0  0  0  0  0  0  0  0  0  0
   -1.5813    0.1191    0.0000 Mg  0  0  0  0  0 15  0  0  0  0  0  0
  1  2  1  0
  2  3  2  0
  2  4  1  0
  1  5  1  0
  6  7  1  0
  7  8  2  0
  7  9  1  0
  6 10  1  0
M  CHG  3   4  -1   9  -1  11   2
M  END
>  <DATABASE_ID>  (1) 
DB11189

>  <DATABASE_NAME>  (1) 
drugbank

>  <SMILES>  (1) 
[Mg++].NCC([O-])=O.NCC([O-])=O

>  <INCHI_IDENTIFIER>  (1) 
InChI=1S/2C2H5NO2.Mg/c2*3-1-2(4)5;/h2*1,3H2,(H,4,5);/q;;+2/p-2

>  <INCHI_KEY>  (1) 
AACACXATQSKRQG-UHFFFAOYSA-L

>  <FORMULA>  (1) 
C4H8MgN2O4

>  <MOLECULAR_WEIGHT>  (1) 
172.423

>  <EXACT_MASS>  (1) 
172.03344845

>  <JCHEM_ACCEPTOR_COUNT>  (1) 
3

>  <JCHEM_ATOM_COUNT>  (1) 
19

>  <JCHEM_AVERAGE_POLARIZABILITY>  (1) 
6.245807163205068

>  <JCHEM_BIOAVAILABILITY>  (1) 
1

>  <JCHEM_DONOR_COUNT>  (1) 
1

>  <JCHEM_FORMAL_CHARGE>  (1) 
0

>  <JCHEM_GHOSE_FILTER>  (1) 
0

>  <JCHEM_IUPAC>  (1) 
magnesium(2+) ion bis(2-aminoacetate)

>  <ALOGPS_LOGP>  (1) 
-1.48

>  <JCHEM_LOGP>  (1) 
-3.409459573132419

>  <ALOGPS_LOGS>  (1) 
-0.10

>  <JCHEM_MDDR_LIKE_RULE>  (1) 
0

>  <JCHEM_NUMBER_OF_RINGS>  (1) 
0

>  <JCHEM_PHYSIOLOGICAL_CHARGE>  (1) 
0

>  <JCHEM_PKA_STRONGEST_ACIDIC>  (1) 
2.3074568824727404

>  <JCHEM_PKA_STRONGEST_BASIC>  (1) 
9.240341660583645

>  <JCHEM_POLAR_SURFACE_AREA>  (1) 
66.14999999999999

>  <JCHEM_REFRACTIVITY>  (1) 
26.840500000000002

>  <JCHEM_ROTATABLE_BOND_COUNT>  (1) 
2

>  <JCHEM_RULE_OF_FIVE>  (1) 
1

>  <ALOGPS_SOLUBILITY>  (1) 
1.36e+02 g/l

>  <JCHEM_TRADITIONAL_IUPAC>  (1) 
magnesium(2+) ion diaminoacetate

>  <JCHEM_VEBER_RULE>  (1) 
0

>  <DRUGBANK_ID>  (1) 
DB11189

>  <DRUG_GROUPS>  (1) 
approved

>  <GENERIC_NAME>  (1) 
Magnesium glycinate

>  <SYNONYMS>  (1) 
Magnesium glycinate

>  <PRODUCTS>  (1) 
Puralor; Remedient

$$$$
