
     RDKit          2D

  9  8  0  0  0  0  0  0  0  0999 V2000
    0.3610   -0.4091    0.0000 C   0  0  0  0  0  0  0  0  0  0  0  0
    0.3610   -1.2400    0.0000 C   0  0  0  0  0  0  0  0  0  0  0  0
    0.3610    0.4174    0.0000 C   0  0  0  0  0  0  0  0  0  0  0  0
   -0.3528    0.8309    0.0000 C   0  0  0  0  0  0  0  0  0  0  0  0
   -1.0750    0.4174    0.0000 C   0  0  0  0  0  0  0  0  0  0  0  0
   -1.7889    0.8309    0.0000 Cl  0  0  0  0  0  0  0  0  0  0  0  0
    0.3610    1.2400    0.0000 O   0  0  0  0  0  0  0  0  0  0  0  0
    1.0750    0.8309    0.0000 C   0  0  0  0  0  0  0  0  0  0  0  0
    1.7889    0.4174    0.0000 C   0  0  0  0  0  0  0  0  0  0  0  0
  2  1  3  0
  3  1  1  0
  4  3  1  0
  5  4  2  0
  6  5  1  0
  7  3  1  0
  8  3  1  0
  9  8  1  0
M  END
>  <DATABASE_ID>  (1) 
DB00189

>  <DATABASE_NAME>  (1) 
drugbank

>  <SMILES>  (1) 
CCC(O)(\C=C\Cl)C#C

>  <INCHI_IDENTIFIER>  (1) 
InChI=1S/C7H9ClO/c1-3-7(9,4-2)5-6-8/h1,5-6,9H,4H2,2H3/b6-5+

>  <INCHI_KEY>  (1) 
ZEHYJZXQEQOSON-AATRIKPKSA-N

>  <FORMULA>  (1) 
C7H9ClO

>  <MOLECULAR_WEIGHT>  (1) 
144.6

>  <EXACT_MASS>  (1) 
144.0341926

>  <JCHEM_ACCEPTOR_COUNT>  (1) 
1

>  <JCHEM_ATOM_COUNT>  (1) 
18

>  <JCHEM_AVERAGE_POLARIZABILITY>  (1) 
14.766102360555642

>  <JCHEM_BIOAVAILABILITY>  (1) 
1

>  <JCHEM_DONOR_COUNT>  (1) 
1

>  <JCHEM_FORMAL_CHARGE>  (1) 
0

>  <JCHEM_GHOSE_FILTER>  (1) 
0

>  <JCHEM_IUPAC>  (1) 
(1E)-1-chloro-3-ethylpent-1-en-4-yn-3-ol

>  <ALOGPS_LOGP>  (1) 
1.45

>  <JCHEM_LOGP>  (1) 
1.620819461

>  <ALOGPS_LOGS>  (1) 
-3.00

>  <JCHEM_MDDR_LIKE_RULE>  (1) 
0

>  <JCHEM_NUMBER_OF_RINGS>  (1) 
0

>  <JCHEM_PHYSIOLOGICAL_CHARGE>  (1) 
0

>  <JCHEM_PKA_STRONGEST_ACIDIC>  (1) 
12.877910831568652

>  <JCHEM_PKA_STRONGEST_BASIC>  (1) 
-3.727001802271872

>  <JCHEM_POLAR_SURFACE_AREA>  (1) 
20.23

>  <JCHEM_REFRACTIVITY>  (1) 
38.6382

>  <JCHEM_ROTATABLE_BOND_COUNT>  (1) 
2

>  <JCHEM_RULE_OF_FIVE>  (1) 
1

>  <ALOGPS_SOLUBILITY>  (1) 
1.43e-01 g/l

>  <JCHEM_TRADITIONAL_IUPAC>  (1) 
ethchlorvynol

>  <JCHEM_VEBER_RULE>  (1) 
1

>  <DRUGBANK_ID>  (1) 
DB00189

>  <SECONDARY_ACCESSION_NUMBERS>  (1) 
APRD00958

>  <DRUG_GROUPS>  (1) 
approved; illicit; withdrawn

>  <GENERIC_NAME>  (1) 
Ethchlorvynol

>  <SYNONYMS>  (1) 
1-chloro-3-ethyl-1-penten-4-yn-3-ol; 1-Chloro-3-ethyl-pent-1-en-4-yn-3-ol; 3-(beta-chlorovinyl)-1-pentyn-3-ol; 3-(β-chlorovinyl)-1-pentyn-3-ol; etclorvinol; Ethchlorvynol; ethyl β-chlorovinyl ethynyl carbinol; β-chlorovinyl ethyl ethynyl carbinol

>  <PRODUCTS>  (1) 
Placidyl Cap 200mg; Placidyl Cap 500mg; Placidyl Cap 750mg

>  <INTERNATIONAL_BRANDS>  (1) 
Arvynol; Nostel; Placidyl; Roeridorm; Serenesil

$$$$
