
     RDKit          2D

  7  4  0  0  0  0  0  0  0  0999 V2000
   -0.5009    0.4674    0.0000 Mo  0  0  0  0  0  6  0  0  0  0  0  0
    1.2911   -1.2911    0.0000 Na  0  0  0  0  0 15  0  0  0  0  0  0
    1.2911   -1.2911    0.0000 Na  0  0  0  0  0 15  0  0  0  0  0  0
   -0.5009   -0.3589    0.0000 O   0  0  0  0  0  0  0  0  0  0  0  0
    0.5009    0.4674    0.0000 O   0  0  0  0  0  0  0  0  0  0  0  0
   -0.5009    1.2911    0.0000 O   0  0  0  0  0  0  0  0  0  0  0  0
   -1.2911    0.4674    0.0000 O   0  0  0  0  0  0  0  0  0  0  0  0
  1  4  1  0
  1  5  1  0
  1  6  2  0
  1  7  2  0
M  CHG  4   2   1   3   1   4  -1   5  -1
M  END
>  <DATABASE_ID>  (1) 
DB14496

>  <DATABASE_NAME>  (1) 
drugbank

>  <SMILES>  (1) 
[Na+].[Na+].[O-][Mo]([O-])(=O)=O

>  <INCHI_IDENTIFIER>  (1) 
InChI=1S/Mo.2Na.4O/q;2*+1;;;2*-1

>  <INCHI_KEY>  (1) 
TVXXNOYZHKPKGW-UHFFFAOYSA-N

>  <FORMULA>  (1) 
MoNa2O4

>  <MOLECULAR_WEIGHT>  (1) 
205.93

>  <EXACT_MASS>  (1) 
207.864602

>  <JCHEM_ACCEPTOR_COUNT>  (1) 
4

>  <JCHEM_ATOM_COUNT>  (1) 
7

>  <JCHEM_AVERAGE_POLARIZABILITY>  (1) 
6.036749268894994

>  <JCHEM_BIOAVAILABILITY>  (1) 
1

>  <JCHEM_DONOR_COUNT>  (1) 
0

>  <JCHEM_FORMAL_CHARGE>  (1) 
0

>  <JCHEM_GHOSE_FILTER>  (1) 
0

>  <JCHEM_IUPAC>  (1) 
disodium dioxomolybdenumbis(olate)

>  <JCHEM_LOGP>  (1) 
-1.7751999999999997

>  <JCHEM_MDDR_LIKE_RULE>  (1) 
0

>  <JCHEM_NUMBER_OF_RINGS>  (1) 
0

>  <JCHEM_PHYSIOLOGICAL_CHARGE>  (1) 
-2

>  <JCHEM_PKA>  (1) 
3.301029995663981

>  <JCHEM_PKA_STRONGEST_ACIDIC>  (1) 
-2.3010299956639804

>  <JCHEM_POLAR_SURFACE_AREA>  (1) 
80.25999999999999

>  <JCHEM_REFRACTIVITY>  (1) 
5.7716

>  <JCHEM_ROTATABLE_BOND_COUNT>  (1) 
0

>  <JCHEM_RULE_OF_FIVE>  (1) 
1

>  <JCHEM_TRADITIONAL_IUPAC>  (1) 
sodium molybdate

>  <JCHEM_VEBER_RULE>  (1) 
0

>  <DRUGBANK_ID>  (1) 
DB14496

>  <DRUG_GROUPS>  (1) 
approved

>  <GENERIC_NAME>  (1) 
Sodium molybdate

>  <SYNONYMS>  (1) 
Anhydric sodium molybdate; Molybdenum (as sodium); Sodium molybdate; Sodium molybdate (anhydrous); Sodium molybdate(VI); Sodium molybdenum oxide

>  <PRODUCTS>  (1) 
Addamel N; Addnutriv; Advanced B & T Formula; Centrum Specialist Prenatal; Daily Energy Brand Vitamin & Mineral Drink Mix; Doctor's Choice Brand for Men; Envirocomplex; High Potency Multivitamins & Minerals Caplets; K.L. Vitamin-mineral; Luna Vitamin and Mineral Bar for Women; Materna; Materna - Tab; Materna-tab; Mega Min Capsules; Mega Vitaminerals; Milltrium Senior Vitamin and Mineral Supplement; Mineral Support; Multi Cal Mag Liquid; Multi Mins Liquid; Multi-force for Women Tab; Multiple Vitamins and Minerals; Multivitamins and Minerals Tablets; One Daily Vitamin and Mineral Dietary Supplement; One Per Day Vitamin and Mineral Dietary Supplement; One Tablet Daily Mens Formula; One-A-day Advance Men's; Onyx; Organic Minerals Tablet; Prenatal Supplement - Tab; Prenatal Vitamin and Mineral Supplement; Prenatal Vitamin and Mineral Supplement -tab; Prenatal Vitamin and Mineral Supplement Tab; Prenatal Vitamins and Minerals Tablets; Prenatal and Post Partum Supplement; R.E.S. Complex; Right Choice P.M. Multi Formula - Caplet; Spectrum Performa Multivitamins and Minerals Tablets; Totalvit Plus; Tricare Prenatal 2-part Daily Prenatal Vitamin System; Tricare Prenatal Quick Dissolve; Wellness Formula

>  <SALTS>  (1) 
Sodium molybdate dihydrate

$$$$
