
     RDKit          2D

 11 10  0  0  0  0  0  0  0  0999 V2000
   -0.7124   -0.6196    0.0000 C   0  0  0  0  0  0  0  0  0  0  0  0
   -1.4268   -0.2054    0.0000 N   0  0  0  0  0  0  0  0  0  0  0  0
    0.0019   -0.2054    0.0000 C   0  0  0  0  0  0  0  0  0  0  0  0
   -2.1413    0.2047    0.0000 C   0  0  0  0  0  0  0  0  0  0  0  0
    0.7165   -0.6196    0.0000 O   0  0  0  0  0  0  0  0  0  0  0  0
    0.0019    0.6189    0.0000 C   0  0  0  0  0  0  0  0  0  0  0  0
    1.4268   -0.2054    0.0000 C   0  0  0  0  0  0  0  0  0  0  0  0
    2.1413   -0.6196    0.0000 N   0  0  0  0  0  0  0  0  0  0  0  0
    1.4268    0.6189    0.0000 O   0  0  0  0  0  0  0  0  0  0  0  0
   -1.4268    0.6196    0.0000 C   0  0  0  0  0  0  0  0  0  0  0  0
   -2.1413   -0.6179    0.0000 C   0  0  0  0  0  0  0  0  0  0  0  0
  1  2  1  0
  1  3  1  0
  2  4  1  0
  3  5  1  0
  3  6  1  0
  5  7  1  0
  7  8  1  0
  7  9  2  0
  2 10  1  0
  2 11  1  0
M  CHG  1   2   1
M  END
>  <DATABASE_ID>  (1) 
DB01019

>  <DATABASE_NAME>  (1) 
drugbank

>  <SMILES>  (1) 
CC(C[N+](C)(C)C)OC(N)=O

>  <INCHI_IDENTIFIER>  (1) 
InChI=1S/C7H16N2O2/c1-6(11-7(8)10)5-9(2,3)4/h6H,5H2,1-4H3,(H-,8,10)/p+1

>  <INCHI_KEY>  (1) 
NZUPCNDJBJXXRF-UHFFFAOYSA-O

>  <FORMULA>  (1) 
C7H17N2O2

>  <MOLECULAR_WEIGHT>  (1) 
161.2221

>  <EXACT_MASS>  (1) 
161.129002798

>  <JCHEM_ACCEPTOR_COUNT>  (1) 
1

>  <JCHEM_ATOM_COUNT>  (1) 
28

>  <JCHEM_AVERAGE_POLARIZABILITY>  (1) 
17.7280885361127

>  <JCHEM_BIOAVAILABILITY>  (1) 
1

>  <JCHEM_DONOR_COUNT>  (1) 
1

>  <JCHEM_FORMAL_CHARGE>  (1) 
1

>  <JCHEM_GHOSE_FILTER>  (1) 
0

>  <JCHEM_IUPAC>  (1) 
1-(trimethylazaniumyl)propan-2-yl carbamate

>  <ALOGPS_LOGP>  (1) 
-2.79

>  <JCHEM_LOGP>  (1) 
-4.138114261471746

>  <ALOGPS_LOGS>  (1) 
-2.80

>  <JCHEM_MDDR_LIKE_RULE>  (1) 
0

>  <JCHEM_NUMBER_OF_RINGS>  (1) 
0

>  <JCHEM_PHYSIOLOGICAL_CHARGE>  (1) 
1

>  <JCHEM_PKA_STRONGEST_ACIDIC>  (1) 
15.34062327414853

>  <JCHEM_POLAR_SURFACE_AREA>  (1) 
52.32

>  <JCHEM_REFRACTIVITY>  (1) 
54.441

>  <JCHEM_ROTATABLE_BOND_COUNT>  (1) 
4

>  <JCHEM_RULE_OF_FIVE>  (1) 
1

>  <ALOGPS_SOLUBILITY>  (1) 
3.11e-01 g/l

>  <JCHEM_TRADITIONAL_IUPAC>  (1) 
bethanechol

>  <JCHEM_VEBER_RULE>  (1) 
0

>  <DRUGBANK_ID>  (1) 
DB01019

>  <SECONDARY_ACCESSION_NUMBERS>  (1) 
APRD00051

>  <DRUG_GROUPS>  (1) 
approved

>  <GENERIC_NAME>  (1) 
Bethanechol

>  <SYNONYMS>  (1) 
(2-hydroxypropyl)trimethylammonium carbamate; 2-(carbamoyloxy)-N,N,N-trimethylpropan-1-aminium; 2-carbamoyloxypropyl-trimethylazanium; Amidopropyldimethylbetaine; Bethanechol; Carbamoyl-beta-methylcholine; carbamoyl-β-methylcholine; Carbamyl-beta-methylcholine; carbamyl-β-methylcholine

>  <PRODUCTS>  (1) 
Bethanechol Chloride; Bethanechol chloride; Duvoid; Myotonachol Tablets 10mg; Myotonachol Tablets 25mg; PHL-bethanechol Chloride; PMS-bethanechol Chloride Tab 10mg; PMS-bethanechol Chloride Tab 25mg; PMS-bethanechol Chloride Tab 50mg; Urecholine; Urecholine Inj 5mg/ml; Urecholine Tab 10mg; Urecholine Tab 25mg

>  <INTERNATIONAL_BRANDS>  (1) 
Duvoid; Myotonachol; Myotonine; Uro-Carb

>  <SALTS>  (1) 
Bethanechol chloride

$$$$
