
     RDKit          2D

  5  4  0  0  0  0  0  0  0  0999 V2000
    0.0000   -0.4125    0.0000 Cl  0  0  0  0  0  0  0  0  0  0  0  0
    0.7145   -0.8250    0.0000 O   0  0  0  0  0  0  0  0  0  0  0  0
   -0.7145   -0.8250    0.0000 O   0  0  0  0  0  0  0  0  0  0  0  0
    0.0000    0.4125    0.0000 O   0  0  0  0  0  0  0  0  0  0  0  0
    0.7145    0.8250    0.0000 H   0  0  0  0  0  0  0  0  0  0  0  0
  1  3  1  0
  1  4  1  0
  1  2  1  0
  4  5  1  0
M  CHG  3   1   2   2  -1   3  -1
M  END
>  <DATABASE_ID>  (1) 
DB14150

>  <DATABASE_NAME>  (1) 
drugbank

>  <SMILES>  (1) 
[H]O[Cl](=O)=O

>  <INCHI_IDENTIFIER>  (1) 
InChI=1S/ClHO3/c2-1(3)4/h(H,2,3,4)

>  <INCHI_KEY>  (1) 
XTEGARKTQYYJKE-UHFFFAOYSA-N

>  <FORMULA>  (1) 
ClHO3

>  <MOLECULAR_WEIGHT>  (1) 
84.459

>  <EXACT_MASS>  (1) 
83.961421605

>  <JCHEM_ACCEPTOR_COUNT>  (1) 
3

>  <JCHEM_ATOM_COUNT>  (1) 
5

>  <JCHEM_AVERAGE_POLARIZABILITY>  (1) 
4.914196624292505

>  <JCHEM_BIOAVAILABILITY>  (1) 
1

>  <JCHEM_DONOR_COUNT>  (1) 
1

>  <JCHEM_FORMAL_CHARGE>  (1) 
0

>  <JCHEM_GHOSE_FILTER>  (1) 
0

>  <JCHEM_IUPAC>  (1) 
chloric acid

>  <ALOGPS_LOGP>  (1) 
-1.22

>  <JCHEM_LOGP>  (1) 
0.040962167666666695

>  <ALOGPS_LOGS>  (1) 
0.21

>  <JCHEM_MDDR_LIKE_RULE>  (1) 
0

>  <JCHEM_NUMBER_OF_RINGS>  (1) 
0

>  <JCHEM_PHYSIOLOGICAL_CHARGE>  (1) 
-1

>  <JCHEM_PKA_STRONGEST_ACIDIC>  (1) 
4.6223785013074545

>  <JCHEM_POLAR_SURFACE_AREA>  (1) 
54.37

>  <JCHEM_REFRACTIVITY>  (1) 
11.5867

>  <JCHEM_ROTATABLE_BOND_COUNT>  (1) 
0

>  <JCHEM_RULE_OF_FIVE>  (1) 
1

>  <ALOGPS_SOLUBILITY>  (1) 
1.37e+02 g/l

>  <JCHEM_TRADITIONAL_IUPAC>  (1) 
chloric acid

>  <JCHEM_VEBER_RULE>  (1) 
0

>  <DRUGBANK_ID>  (1) 
DB14150

>  <DRUG_GROUPS>  (1) 
approved

>  <GENERIC_NAME>  (1) 
Chloric acid

>  <SYNONYMS>  (1) 
Chlorate; Chloric acid; Chlorsäure

>  <PRODUCTS>  (1) 
Aquacid-100; Aquacid-120; Aquacid-200; Aquacid-220; CLO2--Portable sterilization card; Dry-cid; Hemodialysis Acid Concentrate; Polyethylene Glycol 3350 and electrolytes - Unflavored; Truemed Group LLC

>  <SALTS>  (1) 
Potassium chlorate; Sodium chlorate

$$$$
