
     RDKit          2D

 15 15  0  0  1  0  0  0  0  0999 V2000
    1.4289    0.8250    0.0000 C   0  0  0  0  0  0  0  0  0  0  0  0
    1.4289   -0.0000    0.0000 C   0  0  0  0  0  0  0  0  0  0  0  0
    0.7145   -0.4125    0.0000 C   0  0  0  0  0  0  0  0  0  0  0  0
    0.0000   -0.0000    0.0000 C   0  0  0  0  0  0  0  0  0  0  0  0
    0.0000    0.8250    0.0000 C   0  0  0  0  0  0  0  0  0  0  0  0
    0.7145    1.2375    0.0000 C   0  0  0  0  0  0  0  0  0  0  0  0
    0.7145    2.0625    0.0000 O   0  0  0  0  0  0  0  0  0  0  0  0
   -0.7145    1.2375    0.0000 O   0  0  0  0  0  0  0  0  0  0  0  0
    0.7145   -1.2375    0.0000 F   0  0  0  0  0  0  0  0  0  0  0  0
    2.1434   -0.4125    0.0000 C   0  0  0  0  0  0  0  0  0  0  0  0
    2.8579   -0.0000    0.0000 C   0  0  0  0  0  0  0  0  0  0  0  0
    3.5724   -0.4125    0.0000 C   0  0  0  0  0  0  0  0  0  0  0  0
    4.2868   -0.0000    0.0000 O   0  0  0  0  0  0  0  0  0  0  0  0
    3.5724   -1.2375    0.0000 O   0  0  0  0  0  0  0  0  0  0  0  0
    2.8579    0.8250    0.0000 N   0  0  0  0  0  0  0  0  0  0  0  0
  1  2  2  0
  2  3  1  0
  3  4  2  0
  4  5  1  0
  5  6  2  0
  1  6  1  0
  6  7  1  0
  5  8  1  0
  3  9  1  0
  2 10  1  0
 10 11  1  0
 11 12  1  0
 12 13  2  0
 12 14  1  0
 11 15  1  6
M  ISO  1   9  18
M  END
>  <DATABASE_ID>  (1) 
DB13848

>  <DATABASE_NAME>  (1) 
drugbank

>  <SMILES>  (1) 
N[C@@H](CC1=CC(O)=C(O)C=C1[18F])C(O)=O

>  <INCHI_IDENTIFIER>  (1) 
InChI=1S/C9H10FNO4/c10-5-3-8(13)7(12)2-4(5)1-6(11)9(14)15/h2-3,6,12-13H,1,11H2,(H,14,15)/t6-/m0/s1/i10-1

>  <INCHI_KEY>  (1) 
PAXWQORCRCBOCU-RPDRGXCHSA-N

>  <FORMULA>  (1) 
C9H10FNO4

>  <MOLECULAR_WEIGHT>  (1) 
214.183

>  <EXACT_MASS>  (1) 
214.061920473

>  <JCHEM_ACCEPTOR_COUNT>  (1) 
5

>  <JCHEM_ATOM_COUNT>  (1) 
25

>  <JCHEM_AVERAGE_POLARIZABILITY>  (1) 
19.094498615975215

>  <JCHEM_BIOAVAILABILITY>  (1) 
1

>  <JCHEM_DONOR_COUNT>  (1) 
4

>  <JCHEM_FORMAL_CHARGE>  (1) 
0

>  <JCHEM_GHOSE_FILTER>  (1) 
0

>  <JCHEM_IUPAC>  (1) 
(2S)-2-amino-3-[2-(¹⁸F)fluoro-4,5-dihydroxyphenyl]propanoic acid

>  <ALOGPS_LOGP>  (1) 
-2.01

>  <JCHEM_LOGP>  (1) 
-1.6495564408471752

>  <ALOGPS_LOGS>  (1) 
-1.95

>  <JCHEM_MDDR_LIKE_RULE>  (1) 
0

>  <JCHEM_NUMBER_OF_RINGS>  (1) 
1

>  <JCHEM_PHYSIOLOGICAL_CHARGE>  (1) 
0

>  <JCHEM_PKA>  (1) 
8.444176933858317

>  <JCHEM_PKA_STRONGEST_ACIDIC>  (1) 
1.3217422869485103

>  <JCHEM_PKA_STRONGEST_BASIC>  (1) 
9.403405380031595

>  <JCHEM_POLAR_SURFACE_AREA>  (1) 
103.78

>  <JCHEM_REFRACTIVITY>  (1) 
49.2945

>  <JCHEM_ROTATABLE_BOND_COUNT>  (1) 
3

>  <JCHEM_RULE_OF_FIVE>  (1) 
1

>  <ALOGPS_SOLUBILITY>  (1) 
2.39e+00 g/l

>  <JCHEM_TRADITIONAL_IUPAC>  (1) 
6-(18F)Fluoro-L-DOPA

>  <JCHEM_VEBER_RULE>  (1) 
0

>  <DRUGBANK_ID>  (1) 
DB13848

>  <DRUG_GROUPS>  (1) 
approved; investigational

>  <GENERIC_NAME>  (1) 
Fluorodopa (18F)

>  <SYNONYMS>  (1) 
18F-DOPA; 6-Fluoro-(18F)-L-3,4-Dihydroxyphenylalanine; Fluorodopa (18F); Fluorodopa F 18; Fluorodopa F-18; L-3,4-Dihydroxy-6-[18F]Fluorophenylalanine; L-6-(18F)Fluoro-DOPA

>  <PRODUCTS>  (1) 
Fluorodopa F18

$$$$
