
     RDKit          2D

  5  4  0  0  0  0  0  0  0  0999 V2000
    0.0000    0.8250    0.0000 O   0  0  0  0  0  0  0  0  0  0  0  0
   -0.0000   -0.8250    0.0000 O   0  0  0  0  0  0  0  0  0  0  0  0
   -0.8250    0.0000    0.0000 O   0  0  0  0  0  0  0  0  0  0  0  0
    0.8250    0.0000    0.0000 S   0  0  0  0  0  0  0  0  0  0  0  0
    0.0000    0.0000    0.0000 S   0  0  0  0  0  0  0  0  0  0  0  0
  5  1  1  0
  5  2  1  0
  5  3  2  0
  5  4  2  0
M  END
>  <DATABASE_ID>  (1) 
DB09499

>  <DATABASE_NAME>  (1) 
drugbank

>  <SMILES>  (1) 
OS(O)(=O)=S

>  <INCHI_IDENTIFIER>  (1) 
InChI=1S/H2O3S2/c1-5(2,3)4/h(H2,1,2,3,4)

>  <INCHI_KEY>  (1) 
DHCDFWKWKRSZHF-UHFFFAOYSA-N

>  <FORMULA>  (1) 
H2O3S2

>  <MOLECULAR_WEIGHT>  (1) 
114.144

>  <EXACT_MASS>  (1) 
113.94453531

>  <JCHEM_ACCEPTOR_COUNT>  (1) 
3

>  <JCHEM_ATOM_COUNT>  (1) 
7

>  <JCHEM_AVERAGE_NEUTRAL_MICROSPECIES_CHARGE>  (1) 
-1.090859093408966

>  <JCHEM_AVERAGE_POLARIZABILITY>  (1) 
8.511996271743211

>  <JCHEM_BIOAVAILABILITY>  (1) 
1

>  <JCHEM_DONOR_COUNT>  (1) 
2

>  <JCHEM_FORMAL_CHARGE>  (1) 
0

>  <JCHEM_GHOSE_FILTER>  (1) 
0

>  <JCHEM_IUPAC>  (1) 
dihydroxy-1lambda6-disulfen-1-one

>  <JCHEM_LOGP>  (1) 
0.04831756099999998

>  <JCHEM_MDDR_LIKE_RULE>  (1) 
0

>  <JCHEM_NEUTRAL_CHARGE>  (1) 
-1

>  <JCHEM_NUMBER_OF_RINGS>  (1) 
0

>  <JCHEM_PHYSIOLOGICAL_CHARGE>  (1) 
-1

>  <JCHEM_PKA>  (1) 
8.301029995663981

>  <JCHEM_PKA_STRONGEST_ACIDIC>  (1) 
2.6989700043360183

>  <JCHEM_POLAR_SURFACE_AREA>  (1) 
57.53

>  <JCHEM_REFRACTIVITY>  (1) 
21.7617

>  <JCHEM_ROTATABLE_BOND_COUNT>  (1) 
0

>  <JCHEM_RULE_OF_FIVE>  (1) 
1

>  <JCHEM_TRADITIONAL_IUPAC>  (1) 
biotin

>  <JCHEM_VEBER_RULE>  (1) 
0

>  <DRUGBANK_ID>  (1) 
DB09499

>  <DRUG_GROUPS>  (1) 
approved; investigational

>  <GENERIC_NAME>  (1) 
Thiosulfuric acid

>  <SYNONYMS>  (1) 
Monosulfanemonosulfonic acid; Sulfurothioic S-acid; Thiosulfuric acid

>  <PRODUCTS>  (1) 
Adasept Acne Gel; Nithiodote; Oligostim Soufre; Pedmark; Pedmarqsi; Seacalphyx; Sodium Polysulthionate and Folic Acid; Sodium Polysulthionate, 5-methyltetrahydrofolate; Sodium Polysulthionate, 5-mthf; Sodium Thiosulfate; Sodium Thiosulfate Inj 25% USP; Sodium Thiosulfate Injection USP; Sodium polysulthionate and folic acid; Sodium polysulthionate, 5-methyltetrahydrofolate; Sodum Thiosulfate; Sulfzix; Xizflus

>  <INTERNATIONAL_BRANDS>  (1) 
Pedmark

>  <SALTS>  (1) 
Sodium thiosulfate; Sodium thiosulfate pentahydrate

$$$$
