
     RDKit          2D

 18 18  0  0  0  0  0  0  0  0999 V2000
   -0.2062   -0.8250    0.0000 C   0  0  0  0  0  0  0  0  0  0  0  0
   -0.2062    0.0000    0.0000 C   0  0  0  0  0  0  0  0  0  0  0  0
   -0.2062    0.8250    0.0000 C   0  0  0  0  0  0  0  0  0  0  0  0
    0.5082    1.2375    0.0000 C   0  0  0  0  0  0  0  0  0  0  0  0
    0.5082    2.0625    0.0000 N   0  0  0  0  0  0  0  0  0  0  0  0
   -0.2062    2.4750    0.0000 C   0  0  0  0  0  0  0  0  0  0  0  0
    1.2226    2.4750    0.0000 C   0  0  0  0  0  0  0  0  0  0  0  0
    1.2226    0.8250    0.0000 C   0  0  0  0  0  0  0  0  0  0  0  0
   -1.0312    0.0000    0.0000 C   0  0  0  0  0  0  0  0  0  0  0  0
   -1.4437    0.7144    0.0000 C   0  0  0  0  0  0  0  0  0  0  0  0
   -1.4437   -0.7144    0.0000 C   0  0  0  0  0  0  0  0  0  0  0  0
    0.6187    0.0000    0.0000 C   0  0  0  0  0  0  0  0  0  0  0  0
    1.4437    0.0000    0.0000 N   0  0  0  0  0  0  0  0  0  0  0  0
    0.5082   -1.2375    0.0000 C   0  0  0  0  0  0  0  0  0  0  0  0
    0.5082   -2.0625    0.0000 C   0  0  0  0  0  0  0  0  0  0  0  0
   -0.2062   -2.4750    0.0000 C   0  0  0  0  0  0  0  0  0  0  0  0
   -0.9207   -2.0625    0.0000 C   0  0  0  0  0  0  0  0  0  0  0  0
   -0.9207   -1.2375    0.0000 C   0  0  0  0  0  0  0  0  0  0  0  0
  1  2  1  0
  2  3  1  6
  3  4  1  0
  4  5  1  0
  5  6  1  0
  5  7  1  0
  4  8  1  1
  2  9  1  0
  9 10  1  0
  9 11  1  0
  2 12  1  0
 12 13  3  0
  1 14  2  0
 14 15  1  0
 15 16  2  0
 16 17  1  0
 17 18  2  0
  1 18  1  0
M  END
>  <DATABASE_ID>  (1) 
DB08944

>  <DATABASE_NAME>  (1) 
drugbank

>  <SMILES>  (1) 
CC(C)[C@@](C[C@H](C)N(C)C)(C#N)C1=CC=CC=C1

>  <INCHI_IDENTIFIER>  (1) 
InChI=1S/C16H24N2/c1-13(2)16(12-17,11-14(3)18(4)5)15-9-7-6-8-10-15/h6-10,13-14H,11H2,1-5H3/t14-,16+/m0/s1

>  <INCHI_KEY>  (1) 
WFLSCFISQHLEED-GOEBONIOSA-N

>  <FORMULA>  (1) 
C16H24N2

>  <MOLECULAR_WEIGHT>  (1) 
244.382

>  <EXACT_MASS>  (1) 
244.193948781

>  <JCHEM_ACCEPTOR_COUNT>  (1) 
2

>  <JCHEM_ATOM_COUNT>  (1) 
42

>  <JCHEM_AVERAGE_POLARIZABILITY>  (1) 
29.30550421534086

>  <JCHEM_BIOAVAILABILITY>  (1) 
1

>  <JCHEM_DONOR_COUNT>  (1) 
0

>  <JCHEM_FORMAL_CHARGE>  (1) 
0

>  <JCHEM_GHOSE_FILTER>  (1) 
1

>  <JCHEM_IUPAC>  (1) 
(2R,4S)-4-(dimethylamino)-2-phenyl-2-(propan-2-yl)pentanenitrile

>  <ALOGPS_LOGP>  (1) 
3.44

>  <JCHEM_LOGP>  (1) 
3.6327429209999997

>  <ALOGPS_LOGS>  (1) 
-3.56

>  <JCHEM_MDDR_LIKE_RULE>  (1) 
0

>  <JCHEM_NUMBER_OF_RINGS>  (1) 
1

>  <JCHEM_PHYSIOLOGICAL_CHARGE>  (1) 
1

>  <JCHEM_PKA_STRONGEST_BASIC>  (1) 
8.72951902017234

>  <JCHEM_POLAR_SURFACE_AREA>  (1) 
27.03

>  <JCHEM_REFRACTIVITY>  (1) 
77.24530000000001

>  <JCHEM_ROTATABLE_BOND_COUNT>  (1) 
5

>  <JCHEM_RULE_OF_FIVE>  (1) 
1

>  <ALOGPS_SOLUBILITY>  (1) 
6.72e-02 g/l

>  <JCHEM_TRADITIONAL_IUPAC>  (1) 
(2R,4S)-4-(dimethylamino)-2-isopropyl-2-phenylpentanenitrile

>  <JCHEM_VEBER_RULE>  (1) 
1

>  <DRUGBANK_ID>  (1) 
DB08944

>  <DRUG_GROUPS>  (1) 
approved; withdrawn

>  <GENERIC_NAME>  (1) 
Isoaminile

>  <SYNONYMS>  (1) 
Isoaminile

>  <INTERNATIONAL_BRANDS>  (1) 
Peracon

>  <SALTS>  (1) 
Isoaminile citrate; Isoaminile cyclamate

$$$$
