
     RDKit          2D

 29 24  0  0  0  0  0  0  0  0999 V2000
   -1.9041    0.0957    0.0000 C   0  0  0  0  0  0  0  0  0  0  0  0
   -2.2061   -1.0312    0.0000 C   0  0  0  0  0  0  0  0  0  0  0  0
   -1.9041    0.9207    0.0000 C   0  0  0  0  0  0  0  0  0  0  0  0
   -1.3811   -1.0312    0.0000 C   0  0  0  0  0  0  0  0  0  0  0  0
   -3.3331   -0.7292    0.0000 C   0  0  0  0  0  0  0  0  0  0  0  0
   -2.6186   -0.3167    0.0000 C   0  0  0  0  0  0  0  0  0  0  0  0
   -1.1897    1.3332    0.0000 O   0  0  0  0  0  0  0  0  0  0  0  0
   -2.6186    1.3332    0.0000 O   0  0  0  0  0  0  0  0  0  0  0  0
   -0.9686   -1.7457    0.0000 O   0  0  0  0  0  0  0  0  0  0  0  0
   -0.9686   -0.3167    0.0000 O   0  0  0  0  0  0  0  0  0  0  0  0
   -3.3331   -1.5542    0.0000 O   0  0  0  0  0  0  0  0  0  0  0  0
   -4.0475   -0.3167    0.0000 O   0  0  0  0  0  0  0  0  0  0  0  0
   -3.0311    0.3976    0.0000 O   0  0  0  0  0  0  0  0  0  0  0  0
    3.8265    0.2783    0.0000 C   0  0  0  0  0  0  0  0  0  0  0  0
    3.5245   -0.8485    0.0000 C   0  0  0  0  0  0  0  0  0  0  0  0
    3.8265    1.1033    0.0000 C   0  0  0  0  0  0  0  0  0  0  0  0
    4.3495   -0.8485    0.0000 C   0  0  0  0  0  0  0  0  0  0  0  0
    2.3975   -0.5466    0.0000 C   0  0  0  0  0  0  0  0  0  0  0  0
    3.1120   -0.1341    0.0000 C   0  0  0  0  0  0  0  0  0  0  0  0
    3.1120    1.5158    0.0000 O   0  0  0  0  0  0  0  0  0  0  0  0
    4.5410    1.5158    0.0000 O   0  0  0  0  0  0  0  0  0  0  0  0
    4.7620   -0.1341    0.0000 O   0  0  0  0  0  0  0  0  0  0  0  0
    4.7620   -1.5630    0.0000 O   0  0  0  0  0  0  0  0  0  0  0  0
    2.3975   -1.3716    0.0000 O   0  0  0  0  0  0  0  0  0  0  0  0
    1.6831   -0.1341    0.0000 O   0  0  0  0  0  0  0  0  0  0  0  0
    2.6995    0.5803    0.0000 O   0  0  0  0  0  0  0  0  0  0  0  0
   -3.3331    1.7457    0.0000 Mn  0  0  0  0  0 15  0  0  0  0  0  0
   -0.5561    0.3976    0.0000 Mn  0  0  0  0  0 15  0  0  0  0  0  0
   -4.7620    0.0957    0.0000 Mn  0  0  0  0  0 15  0  0  0  0  0  0
  3  1  1  0
  4  2  1  0
  6  1  1  0
  6  2  1  0
  6  5  1  0
  7  3  2  0
  8  3  1  0
  9  4  2  0
 10  4  1  0
 11  5  2  0
 12  5  1  0
 13  6  1  0
 16 14  1  0
 17 15  1  0
 19 14  1  0
 19 15  1  0
 19 18  1  0
 20 16  2  0
 21 16  1  0
 22 17  2  0
 23 17  1  0
 24 18  2  0
 25 18  1  0
 26 19  1  0
M  CHG  8   8  -1  10  -1  12  -1  21  -1  23  -1  25  -1  27   2  28   2
M  CHG  1  29   2
M  END
>  <DATABASE_ID>  (1) 
DB14495

>  <DATABASE_NAME>  (1) 
drugbank

>  <SMILES>  (1) 
[Mn++].[Mn++].[Mn++].OC(CC([O-])=O)(CC([O-])=O)C([O-])=O.OC(CC([O-])=O)(CC([O-])=O)C([O-])=O

>  <INCHI_IDENTIFIER>  (1) 
InChI=1S/2C6H8O7.3Mn/c2*7-3(8)1-6(13,5(11)12)2-4(9)10;;;/h2*13H,1-2H2,(H,7,8)(H,9,10)(H,11,12);;;/q;;3*+2/p-6

>  <INCHI_KEY>  (1) 
OAVRWNUUOUXDFH-UHFFFAOYSA-H

>  <FORMULA>  (1) 
C12H10Mn3O14

>  <MOLECULAR_WEIGHT>  (1) 
543.012

>  <EXACT_MASS>  (1) 
542.821187

>  <JCHEM_ACCEPTOR_COUNT>  (1) 
7

>  <JCHEM_ATOM_COUNT>  (1) 
39

>  <JCHEM_AVERAGE_POLARIZABILITY>  (1) 
14.227786958814349

>  <JCHEM_BIOAVAILABILITY>  (1) 
1

>  <JCHEM_DONOR_COUNT>  (1) 
1

>  <JCHEM_FORMAL_CHARGE>  (1) 
0

>  <JCHEM_GHOSE_FILTER>  (1) 
0

>  <JCHEM_IUPAC>  (1) 
trimanganese(2+) bis(2-hydroxypropane-1,2,3-tricarboxylate)

>  <ALOGPS_LOGP>  (1) 
0.09

>  <JCHEM_LOGP>  (1) 
-1.3226874519999998

>  <ALOGPS_LOGS>  (1) 
-2.03

>  <JCHEM_MDDR_LIKE_RULE>  (1) 
0

>  <JCHEM_NUMBER_OF_RINGS>  (1) 
0

>  <JCHEM_PHYSIOLOGICAL_CHARGE>  (1) 
-3

>  <JCHEM_PKA>  (1) 
4.674836176324

>  <JCHEM_PKA_STRONGEST_ACIDIC>  (1) 
3.0479515131680732

>  <JCHEM_PKA_STRONGEST_BASIC>  (1) 
-4.185693450231931

>  <JCHEM_POLAR_SURFACE_AREA>  (1) 
140.61999999999998

>  <JCHEM_REFRACTIVITY>  (1) 
68.13520000000001

>  <JCHEM_ROTATABLE_BOND_COUNT>  (1) 
10

>  <JCHEM_RULE_OF_FIVE>  (1) 
0

>  <ALOGPS_SOLUBILITY>  (1) 
5.03e+00 g/l

>  <JCHEM_TRADITIONAL_IUPAC>  (1) 
trimanganese(2+) dicitrate

>  <JCHEM_VEBER_RULE>  (1) 
0

>  <DRUGBANK_ID>  (1) 
DB14495

>  <DRUG_GROUPS>  (1) 
approved

>  <GENERIC_NAME>  (1) 
Manganese citrate

>  <SYNONYMS>  (1) 
Manganese citrate; Manganese citrate anhydrous; Trimanganese dicitrate

>  <PRODUCTS>  (1) 
Collag-EN; Manganese Citrate; Release; Tricare Prenatal 2-part Daily Prenatal Vitamin System; Tricare Prenatal Quick Dissolve

>  <SALTS>  (1) 
Manganese citrate decahydrate

$$$$
