
     RDKit          2D

 33 34  0  0  1  0  0  0  0  0999 V2000
   -0.7145    0.4125    0.0000 N   0  0  0  0  0  0  0  0  0  0  0  0
   -0.7145   -0.4125    0.0000 C   0  0  0  0  0  0  0  0  0  0  0  0
    0.0000    0.8250    0.0000 C   0  0  0  0  0  0  0  0  0  0  0  0
    0.7145    0.4125    0.0000 C   0  0  0  0  0  0  0  0  0  0  0  0
    0.7145   -0.4125    0.0000 C   0  0  0  0  0  0  0  0  0  0  0  0
    0.0000   -0.8250    0.0000 N   0  0  0  0  0  0  0  0  0  0  0  0
   -1.4289   -0.8250    0.0000 N   0  0  0  0  0  0  0  0  0  0  0  0
    1.4289   -0.8250    0.0000 C   0  0  0  0  0  0  0  0  0  0  0  0
    1.4289   -1.6500    0.0000 C   0  0  0  0  0  0  0  0  0  0  0  0
    2.1434   -0.4125    0.0000 C   0  0  0  0  0  0  0  0  0  0  0  0
    0.0000    1.6500    0.0000 C   0  0  0  0  0  0  0  0  0  0  0  0
   -0.7145    2.0625    0.0000 C   0  0  0  0  0  0  0  0  0  0  0  0
   -0.7145    2.8875    0.0000 C   0  0  0  0  0  0  0  0  0  0  0  0
    0.0000    3.3000    0.0000 C   0  0  0  0  0  0  0  0  0  0  0  0
    0.7145    2.8875    0.0000 C   0  0  0  0  0  0  0  0  0  0  0  0
    0.7145    2.0625    0.0000 C   0  0  0  0  0  0  0  0  0  0  0  0
    0.0000    4.1250    0.0000 F   0  0  0  0  0  0  0  0  0  0  0  0
    1.4289    0.8250    0.0000 C   0  0  0  0  0  0  0  0  0  0  0  0
    2.1473    0.4193    0.0000 C   0  0  0  0  0  0  0  0  0  0  0  0
    2.8578    0.8385    0.0000 C   0  0  0  0  0  0  0  0  0  0  0  0
    3.5762    0.4328    0.0000 C   0  0  0  0  0  0  0  0  0  0  0  0
    4.2867    0.8521    0.0000 C   0  0  0  0  0  0  0  0  0  0  0  0
    5.0050    0.4464    0.0000 C   0  0  0  0  0  0  0  0  0  0  0  0
    5.7156    0.8656    0.0000 C   0  0  0  0  0  0  0  0  0  0  0  0
    5.7078    1.6906    0.0000 O   0  0  0  0  0  0  0  0  0  0  0  0
    6.4339    0.4599    0.0000 O   0  0  0  0  0  0  0  0  0  0  0  0
    4.2789    1.6770    0.0000 O   0  0  0  0  0  0  0  0  0  0  0  0
    2.8500    1.6635    0.0000 O   0  0  0  0  0  0  0  0  0  0  0  0
   -1.4289   -2.4750    0.0000 C   0  0  0  0  0  0  0  0  0  0  0  0
   -0.6039   -1.6500    0.0000 O   0  0  0  0  0  0  0  0  0  0  0  0
   -1.4289   -1.6500    0.0000 S   0  0  0  0  0  0  0  0  0  0  0  0
   -2.2539   -1.6500    0.0000 O   0  0  0  0  0  0  0  0  0  0  0  0
   -2.1434   -0.4125    0.0000 C   0  0  0  0  0  0  0  0  0  0  0  0
  1  2  2  0
  2  7  1  0
  3  1  1  0
  3 11  1  0
  3  4  2  0
  4 18  1  0
  4  5  1  0
  5  8  1  0
  2  6  1  0
  5  6  2  0
  7 31  1  0
  7 33  1  0
  8  9  1  0
  8 10  1  0
 11 12  2  0
 11 16  1  0
 12 13  1  0
 13 14  2  0
 15 14  1  0
 14 17  1  0
 16 15  2  0
 18 19  2  0
 19 20  1  0
 20 21  1  0
 20 28  1  1
 21 22  1  0
 22 23  1  0
 22 27  1  1
 23 24  1  0
 24 25  2  0
 24 26  1  0
 31 29  1  0
 31 30  2  0
 31 32  2  0
M  END
>  <DATABASE_ID>  (1) 
DB01098

>  <DATABASE_NAME>  (1) 
drugbank

>  <SMILES>  (1) 
CC(C)C1=NC(=NC(C2=CC=C(F)C=C2)=C1\C=C\[C@@H](O)C[C@@H](O)CC(=O)O)N(C)S(C)(=O)=O

>  <INCHI_IDENTIFIER>  (1) 
InChI=1S/C22H28FN3O6S/c1-13(2)20-18(10-9-16(27)11-17(28)12-19(29)30)21(14-5-7-15(23)8-6-14)25-22(24-20)26(3)33(4,31)32/h5-10,13,16-17,27-28H,11-12H2,1-4H3,(H,29,30)/b10-9+/t16-,17-/m1/s1

>  <INCHI_KEY>  (1) 
BPRHUIZQVSMCRT-VEUZHWNKSA-N

>  <FORMULA>  (1) 
C22H28FN3O6S

>  <MOLECULAR_WEIGHT>  (1) 
481.538

>  <EXACT_MASS>  (1) 
481.168284538

>  <JCHEM_ACCEPTOR_COUNT>  (1) 
8

>  <JCHEM_ATOM_COUNT>  (1) 
61

>  <JCHEM_AVERAGE_NEUTRAL_MICROSPECIES_CHARGE>  (1) 
-0.9990009488003396

>  <JCHEM_AVERAGE_POLARIZABILITY>  (1) 
48.54601897888331

>  <JCHEM_BIOAVAILABILITY>  (1) 
1

>  <JCHEM_DONOR_COUNT>  (1) 
3

>  <JCHEM_FORMAL_CHARGE>  (1) 
0

>  <JCHEM_GHOSE_FILTER>  (1) 
0

>  <JCHEM_IUPAC>  (1) 
(3R,5S,6E)-7-[4-(4-fluorophenyl)-2-(N-methylmethanesulfonamido)-6-(propan-2-yl)pyrimidin-5-yl]-3,5-dihydroxyhept-6-enoic acid

>  <ALOGPS_LOGP>  (1) 
1.47

>  <JCHEM_LOGP>  (1) 
1.9229604620000003

>  <ALOGPS_LOGS>  (1) 
-3.74

>  <JCHEM_MDDR_LIKE_RULE>  (1) 
0

>  <JCHEM_NEUTRAL_CHARGE>  (1) 
-1

>  <JCHEM_NUMBER_OF_RINGS>  (1) 
2

>  <JCHEM_PHYSIOLOGICAL_CHARGE>  (1) 
-1

>  <JCHEM_PKA>  (1) 
14.648204462309941

>  <JCHEM_PKA_STRONGEST_ACIDIC>  (1) 
4.0000339981567

>  <JCHEM_PKA_STRONGEST_BASIC>  (1) 
-1.6184133044472442

>  <JCHEM_POLAR_SURFACE_AREA>  (1) 
140.92000000000002

>  <JCHEM_REFRACTIVITY>  (1) 
121.43829999999997

>  <JCHEM_ROTATABLE_BOND_COUNT>  (1) 
9

>  <JCHEM_RULE_OF_FIVE>  (1) 
1

>  <ALOGPS_SOLUBILITY>  (1) 
8.86e-02 g/l

>  <JCHEM_TRADITIONAL_IUPAC>  (1) 
tetrahydrofolic acid

>  <JCHEM_VEBER_RULE>  (1) 
0

>  <DRUGBANK_ID>  (1) 
DB01098

>  <SECONDARY_ACCESSION_NUMBERS>  (1) 
APRD00546

>  <DRUG_GROUPS>  (1) 
approved; investigational

>  <GENERIC_NAME>  (1) 
Rosuvastatin

>  <SYNONYMS>  (1) 
(3R,5S,6E)-7-(4-(4-fluorophenyl)-6-(1-methylethyl)-2-(ethyl(methylsulfonyl)amino)-5-pyrimidinyl)-3,5-dihydroxy-6-heptenoic acid; (3R,5S,6E)-7-{4-(4-fluorophenyl)-6-isopropyl-2-[methyl(methylsulfonyl)amino]pyrimidin-5-yl}-3,5-dihydroxyhept-6-enoic acid; Rosuvastatin; Rosuvastatina

>  <PRODUCTS>  (1) 
Ach-rosuvastatin; Act Rosuvastatin; Ag-rosuvastatin; Ag-rosuvastatin Calcium; Apo-rosuvastatin; Auro-rosuvastatin; Bio-rosuvastatin; Crestor; Crestor - 10mg; Crestor - 20mg; Crestor - 40mg; Crestor - 5mg; Dom-rosuvastatin; Ezallor Sprinkle; Ipg-rosuvastatin; Jamp Rosuvastatin Tablets; Jamp-rosuvastatin; M-rosuvastatin; Mar-rosuvastatin; Med-rosuvastatin; Mint-rosuvastatin; Mylan-rosuvastatin; Nb-rosuvastatin; Novo-rosuvastatin; Nra-rosuvastatin; Nra-rosuvastatin Tablets; Ntp-rosuvastatin; PMS-rosuvastatin; Priva-rosuvastatin; Prz-rosuvastatin; Q-rosuvastatin; Riva-rosuvastatin; Rosuvastain Calcium; Rosuvastatin; Rosuvastatin Calcium; Rosuvastatin and Ezetimibe; Rosuvastatin calcium; Rosuvstatin; Roszet; Sandoz Rosuvastatin; Taro-rosuvastatin; Teva-rosuvastatin

>  <INTERNATIONAL_BRANDS>  (1) 
Astende; Cirantan; Cresadex; Provisacor ; Razel; Rosedex; Rosimol; Rosumed; Rosustatin; Rosuvas; Rosuvast; Rosvel; Rovartal; Simestat; Sinlip; Visacor; Vivacor

>  <SALTS>  (1) 
Rosuvastatin calcium; Rosuvastatin zinc

$$$$
