787
     RDKit          2D

 16 17  0  0  0  0  0  0  0  0999 V2000
    6.0807    0.7122    0.0000 O   0  0  0  0  0  0  0  0  0  0  0  0
    3.5220   -2.5562    0.0000 O   0  0  0  0  0  0  0  0  0  0  0  0
    7.4006    2.4506    0.0000 O   0  0  0  0  0  0  0  0  0  0  0  0
    5.0171   -0.2422    0.0000 N   0  0  0  0  0  0  0  0  0  0  0  0
    3.5220   -0.0811    0.0000 N   0  0  0  0  0  0  0  0  0  0  0  0
    5.0171   -1.5700    0.0000 N   0  0  0  0  0  0  0  0  0  0  0  0
    2.8075   -1.3186    0.0000 N   0  0  0  0  0  0  0  0  0  0  0  0
    2.0930   -0.0811    0.0000 N   0  0  0  0  0  0  0  0  0  0  0  0
    4.2365   -0.4936    0.0000 C   0  0  0  0  0  0  0  0  0  0  0  0
    5.2734    0.5420    0.0000 C   0  0  0  0  0  0  0  0  0  0  0  0
    4.2365   -1.3186    0.0000 C   0  0  0  0  0  0  0  0  0  0  0  0
    5.4986   -0.9061    0.0000 C   0  0  0  0  0  0  0  0  0  0  0  0
    3.5220   -1.7311    0.0000 C   0  0  0  0  0  0  0  0  0  0  0  0
    2.8075   -0.4936    0.0000 C   0  0  0  0  0  0  0  0  0  0  0  0
    6.3370    1.4963    0.0000 C   0  0  0  0  0  0  0  0  0  0  0  0
    7.1443    1.6665    0.0000 C   0  0  0  0  0  0  0  0  0  0  0  0
  1 10  1  0
  1 15  1  0
  2 13  2  0
  3 16  1  0
  4  9  1  0
  4 10  1  0
  4 12  1  0
  5  9  1  0
  5 14  1  0
  6 11  1  0
  6 12  2  0
  7 13  1  0
  7 14  2  0
  8 14  1  0
  9 11  2  0
 11 13  1  0
 15 16  1  0
M  END
>  <DATABASE_ID>  (1) 
DB00787

>  <DATABASE_NAME>  (1) 
drugbank

>  <SMILES>  (1) 
NC1=NC(=O)C2=C(N1)N(COCCO)C=N2

>  <INCHI_IDENTIFIER>  (1) 
InChI=1S/C8H11N5O3/c9-8-11-6-5(7(15)12-8)10-3-13(6)4-16-2-1-14/h3,14H,1-2,4H2,(H3,9,11,12,15)

>  <INCHI_KEY>  (1) 
MKUXAQIIEYXACX-UHFFFAOYSA-N

>  <FORMULA>  (1) 
C8H11N5O3

>  <MOLECULAR_WEIGHT>  (1) 
225.2046

>  <EXACT_MASS>  (1) 
225.086189243

>  <JCHEM_ACCEPTOR_COUNT>  (1) 
7

>  <JCHEM_ATOM_COUNT>  (1) 
27

>  <JCHEM_AVERAGE_POLARIZABILITY>  (1) 
21.507933725133036

>  <JCHEM_BIOAVAILABILITY>  (1) 
1

>  <JCHEM_DONOR_COUNT>  (1) 
3

>  <JCHEM_FORMAL_CHARGE>  (1) 
0

>  <JCHEM_GHOSE_FILTER>  (1) 
0

>  <JCHEM_IUPAC>  (1) 
2-amino-9-[(2-hydroxyethoxy)methyl]-6,9-dihydro-3H-purin-6-one

>  <ALOGPS_LOGP>  (1) 
-0.95

>  <JCHEM_LOGP>  (1) 
-1.0319567660000002

>  <ALOGPS_LOGS>  (1) 
-1.39

>  <JCHEM_MDDR_LIKE_RULE>  (1) 
0

>  <JCHEM_NUMBER_OF_RINGS>  (1) 
2

>  <JCHEM_PHYSIOLOGICAL_CHARGE>  (1) 
0

>  <JCHEM_PKA>  (1) 
15.117578228426233

>  <JCHEM_PKA_STRONGEST_ACIDIC>  (1) 
11.984859791921778

>  <JCHEM_PKA_STRONGEST_BASIC>  (1) 
3.0163894181545694

>  <JCHEM_POLAR_SURFACE_AREA>  (1) 
114.75999999999999

>  <JCHEM_REFRACTIVITY>  (1) 
54.6334

>  <JCHEM_ROTATABLE_BOND_COUNT>  (1) 
4

>  <JCHEM_RULE_OF_FIVE>  (1) 
1

>  <ALOGPS_SOLUBILITY>  (1) 
9.08e+00 g/l

>  <JCHEM_TRADITIONAL_IUPAC>  (1) 
aciclovir

>  <JCHEM_VEBER_RULE>  (1) 
0

>  <DRUGBANK_ID>  (1) 
DB00787

>  <SECONDARY_ACCESSION_NUMBERS>  (1) 
APRD00567; EXPT00406; DB05347

>  <DRUG_GROUPS>  (1) 
approved; investigational

>  <GENERIC_NAME>  (1) 
Acyclovir

>  <SYNONYMS>  (1) 
9-((2-hydroxyethoxy)methyl)guanine; Aciclovir; Aciclovirum; Acycloguanosine; Acyclovir

>  <PRODUCTS>  (1) 
Acyclovir; Acyclovir Sodium; Acyclovir Sodium Injection; Acyclovir Sodium for Injection; Acyclovir suspension; Acyclovir-200; Acyclovir-400; Acyclovir-800; Acyclovix; Alti-acyclovir - 400mg; Alti-acyclovir - 800mg; Alti-acyclovir - Tab 200mg; Apo-acyclovir; Apo-acyclovir Ointment; Avaclyr; LidoVir; Mint-acyclovir; Mylan-acyclovir; Ntp-acyclovir; Ratio-acyclovir; Sitavig; Taro-acyclovir; Teva-acyclovir; Xerese; Zovirax; Zovirax 400; Zovirax 800; Zovirax Cap 200mg; Zovirax Tab 200mg

>  <INTERNATIONAL_BRANDS>  (1) 
Zovir

>  <SALTS>  (1) 
Acyclovir sodium

$$$$
