389
     RDKit          2D

 12 12  0  0  0  0  0  0  0  0999 V2000
    4.5311    0.4990    0.0000 S   0  0  0  0  0  0  0  0  0  0  0  0
    2.3645   -0.9685    0.0000 O   0  0  0  0  0  0  0  0  0  0  0  0
    3.7935   -0.9685    0.0000 O   0  0  0  0  0  0  0  0  0  0  0  0
    3.4916    1.5386    0.0000 N   0  0  0  0  0  0  0  0  0  0  0  0
    3.0791    0.2690    0.0000 N   0  0  0  0  0  0  0  0  0  0  0  0
    3.7465    0.7540    0.0000 C   0  0  0  0  0  0  0  0  0  0  0  0
    2.4115    0.7540    0.0000 C   0  0  0  0  0  0  0  0  0  0  0  0
    2.6666    1.5386    0.0000 C   0  0  0  0  0  0  0  0  0  0  0  0
    3.9764    2.2060    0.0000 C   0  0  0  0  0  0  0  0  0  0  0  0
    3.0791   -0.5560    0.0000 C   0  0  0  0  0  0  0  0  0  0  0  0
    2.3645   -1.7935    0.0000 C   0  0  0  0  0  0  0  0  0  0  0  0
    1.6500   -2.2060    0.0000 C   0  0  0  0  0  0  0  0  0  0  0  0
  1  6  2  0
  2 10  1  0
  2 11  1  0
  3 10  2  0
  4  6  1  0
  4  8  1  0
  4  9  1  0
  5  6  1  0
  5  7  1  0
  5 10  1  0
  7  8  2  0
 11 12  1  0
M  END
>  <DATABASE_ID>  (1) 
DB00389

>  <DATABASE_NAME>  (1) 
drugbank

>  <SMILES>  (1) 
CCOC(=O)N1C=CN(C)C1=S

>  <INCHI_IDENTIFIER>  (1) 
InChI=1S/C7H10N2O2S/c1-3-11-7(10)9-5-4-8(2)6(9)12/h4-5H,3H2,1-2H3

>  <INCHI_KEY>  (1) 
CFOYWRHIYXMDOT-UHFFFAOYSA-N

>  <FORMULA>  (1) 
C7H10N2O2S

>  <MOLECULAR_WEIGHT>  (1) 
186.232

>  <EXACT_MASS>  (1) 
186.046298264

>  <JCHEM_ACCEPTOR_COUNT>  (1) 
1

>  <JCHEM_ATOM_COUNT>  (1) 
22

>  <JCHEM_AVERAGE_NEUTRAL_MICROSPECIES_CHARGE>  (1) 
0.0

>  <JCHEM_AVERAGE_POLARIZABILITY>  (1) 
18.70613164313538

>  <JCHEM_BIOAVAILABILITY>  (1) 
1

>  <JCHEM_DONOR_COUNT>  (1) 
0

>  <JCHEM_FORMAL_CHARGE>  (1) 
0

>  <JCHEM_GHOSE_FILTER>  (1) 
1

>  <JCHEM_IUPAC>  (1) 
ethyl 3-methyl-2-sulfanylidene-2,3-dihydro-1H-imidazole-1-carboxylate

>  <ALOGPS_LOGP>  (1) 
0.78

>  <JCHEM_LOGP>  (1) 
1.3485111993333334

>  <ALOGPS_LOGS>  (1) 
-1.77

>  <JCHEM_MDDR_LIKE_RULE>  (1) 
0

>  <JCHEM_NEUTRAL_CHARGE>  (1) 
0

>  <JCHEM_NUMBER_OF_RINGS>  (1) 
1

>  <JCHEM_PHYSIOLOGICAL_CHARGE>  (1) 
0

>  <JCHEM_POLAR_SURFACE_AREA>  (1) 
32.78

>  <JCHEM_REFRACTIVITY>  (1) 
49.170300000000005

>  <JCHEM_ROTATABLE_BOND_COUNT>  (1) 
2

>  <JCHEM_RULE_OF_FIVE>  (1) 
1

>  <ALOGPS_SOLUBILITY>  (1) 
3.14e+00 g/l

>  <JCHEM_TRADITIONAL_IUPAC>  (1) 
biotin

>  <JCHEM_VEBER_RULE>  (1) 
1

>  <DRUGBANK_ID>  (1) 
DB00389

>  <SECONDARY_ACCESSION_NUMBERS>  (1) 
APRD00503

>  <DRUG_GROUPS>  (1) 
approved

>  <GENERIC_NAME>  (1) 
Carbimazole

>  <SYNONYMS>  (1) 
Athyromazole; Carbethoxymethimazole; Carbimazol; Carbimazole; Carbimazolo; Carbimazolum; Carbinazole; Ethyl 3-methyl-2-thioimidazoline-1-carboxylate

>  <INTERNATIONAL_BRANDS>  (1) 
Camen; Carbimazol; Carbinom; Carbizol; Neomercazole; Neomerdin; Newmazole; Thyrocab; Thyrostat; Tyrazol; Upha Carbimazole

$$$$
