735
     RDKit          2D

 22 24  0  0  1  0  0  0  0  0999 V2000
    4.5079    0.3982    0.0000 N   0  0  0  0  0  0  0  0  0  0  0  0
    5.2223    0.8107    0.0000 C   0  0  0  0  0  0  0  0  0  0  0  0
    5.2223    1.6357    0.0000 C   0  0  0  0  0  0  0  0  0  0  0  0
    5.9369    2.0482    0.0000 C   0  0  0  0  0  0  0  0  0  0  0  0
    5.9369    2.8732    0.0000 C   0  0  0  0  0  0  0  0  0  0  0  0
    4.5079   -0.4268    0.0000 C   0  0  0  0  0  0  0  0  0  0  0  0
    4.5079    2.0482    0.0000 C   0  0  0  0  0  0  0  0  0  0  0  0
    3.7934    0.8107    0.0000 C   0  0  0  0  0  0  0  0  0  0  0  0
    6.6743    1.6071    0.0000 C   0  0  0  0  0  0  0  0  0  0  0  0
    5.2223    3.2857    0.0000 C   0  0  0  0  0  0  0  0  0  0  0  0
    4.5079    2.8732    0.0000 C   0  0  0  0  0  0  0  0  0  0  0  0
    6.6743    3.3143    0.0000 C   0  0  0  0  0  0  0  0  0  0  0  0
    3.7934   -0.8393    0.0000 C   0  0  0  0  0  0  0  0  0  0  0  0
    7.4219    2.0311    0.0000 C   0  0  0  0  0  0  0  0  0  0  0  0
    7.4219    2.8904    0.0000 C   0  0  0  0  0  0  0  0  0  0  0  0
    3.7934   -1.6643    0.0000 C   0  0  0  0  0  0  0  0  0  0  0  0
    3.0790   -2.0768    0.0000 C   0  0  0  0  0  0  0  0  0  0  0  0
    3.0790   -2.9018    0.0000 C   0  0  0  0  0  0  0  0  0  0  0  0
    2.3644   -1.6643    0.0000 C   0  0  0  0  0  0  0  0  0  0  0  0
    2.3644   -3.3143    0.0000 C   0  0  0  0  0  0  0  0  0  0  0  0
    1.6500   -2.0768    0.0000 C   0  0  0  0  0  0  0  0  0  0  0  0
    1.6500   -2.9018    0.0000 C   0  0  0  0  0  0  0  0  0  0  0  0
  1  2  1  0
  1  6  1  0
  1  8  1  0
  2  3  1  0
  3  4  1  0
  3  7  2  0
  4  5  2  0
  4  9  1  0
  5 10  1  0
  5 12  1  0
  6 13  1  0
  7 11  1  0
  9 14  2  0
 10 11  2  0
 12 15  2  0
 13 16  2  3
 14 15  1  0
 16 17  1  0
 17 18  2  0
 17 19  1  0
 18 20  1  0
 19 21  2  0
 20 22  2  0
 21 22  1  0
M  END
>  <DATABASE_ID>  (1) 
DB00735

>  <DATABASE_NAME>  (1) 
drugbank

>  <SMILES>  (1) 
CN(CC=CC1=CC=CC=C1)CC1=CC=CC2=CC=CC=C12

>  <INCHI_IDENTIFIER>  (1) 
InChI=1S/C21H21N/c1-22(16-8-11-18-9-3-2-4-10-18)17-20-14-7-13-19-12-5-6-15-21(19)20/h2-15H,16-17H2,1H3

>  <INCHI_KEY>  (1) 
OZGNYLLQHRPOBR-UHFFFAOYSA-N

>  <FORMULA>  (1) 
C21H21N

>  <MOLECULAR_WEIGHT>  (1) 
287.3981

>  <EXACT_MASS>  (1) 
287.167399677

>  <JCHEM_ACCEPTOR_COUNT>  (1) 
1

>  <JCHEM_ATOM_COUNT>  (1) 
43

>  <JCHEM_AVERAGE_NEUTRAL_MICROSPECIES_CHARGE>  (1) 
0.9899035856823122

>  <JCHEM_AVERAGE_POLARIZABILITY>  (1) 
34.045457147272145

>  <JCHEM_BIOAVAILABILITY>  (1) 
1

>  <JCHEM_DONOR_COUNT>  (1) 
0

>  <JCHEM_FORMAL_CHARGE>  (1) 
0

>  <JCHEM_GHOSE_FILTER>  (1) 
1

>  <JCHEM_IUPAC>  (1) 
methyl[(naphthalen-1-yl)methyl](3-phenylprop-2-en-1-yl)amine

>  <ALOGPS_LOGP>  (1) 
4.96

>  <JCHEM_LOGP>  (1) 
5.238508130333333

>  <ALOGPS_LOGS>  (1) 
-6.10

>  <JCHEM_MDDR_LIKE_RULE>  (1) 
0

>  <JCHEM_NEUTRAL_CHARGE>  (1) 
1

>  <JCHEM_NUMBER_OF_RINGS>  (1) 
3

>  <JCHEM_PHYSIOLOGICAL_CHARGE>  (1) 
1

>  <JCHEM_PKA_STRONGEST_BASIC>  (1) 
8.991425733353166

>  <JCHEM_POLAR_SURFACE_AREA>  (1) 
3.24

>  <JCHEM_REFRACTIVITY>  (1) 
95.98210000000003

>  <JCHEM_ROTATABLE_BOND_COUNT>  (1) 
5

>  <JCHEM_RULE_OF_FIVE>  (1) 
0

>  <ALOGPS_SOLUBILITY>  (1) 
2.29e-04 g/l

>  <JCHEM_TRADITIONAL_IUPAC>  (1) 
tetrahydrofolic acid

>  <JCHEM_VEBER_RULE>  (1) 
1

>  <DRUGBANK_ID>  (1) 
DB00735

>  <SECONDARY_ACCESSION_NUMBERS>  (1) 
APRD01131

>  <DRUG_GROUPS>  (1) 
approved

>  <GENERIC_NAME>  (1) 
Naftifine

>  <SYNONYMS>  (1) 
Naftifin; Naftifina; Naftifine; Naftifinum

>  <PRODUCTS>  (1) 
Naftifine Hydrochloride; Naftifine hydrochloride; Naftin; Naftin Crm 1%; Naftin Gel 1%

>  <INTERNATIONAL_BRANDS>  (1) 
A Mei; Ancent; Exoderil; Micosona; Naftifina; Suadian

>  <SALTS>  (1) 
Naftifine Hydrochloride

$$$$
