
     RDKit          2D

 11 12  0  0  0  0  0  0  0  0999 V2000
   -0.8374   -0.4033    0.0000 C   0  0  0  0  0  0  0  0  0  0  0  0
   -0.8374   -1.2283    0.0000 C   0  0  0  0  0  0  0  0  0  0  0  0
   -0.1230   -1.6408    0.0000 C   0  0  0  0  0  0  0  0  0  0  0  0
    0.5915   -1.2283    0.0000 C   0  0  0  0  0  0  0  0  0  0  0  0
    0.5915   -0.4033    0.0000 C   0  0  0  0  0  0  0  0  0  0  0  0
   -0.1230    0.0092    0.0000 C   0  0  0  0  0  0  0  0  0  0  0  0
    1.2365    0.1111    0.0000 C   0  0  0  0  0  0  0  0  0  0  0  0
    2.0408   -0.0725    0.0000 C   0  0  0  0  0  0  0  0  0  0  0  0
    2.3988   -0.8158    0.0000 C   0  0  0  0  0  0  0  0  0  0  0  0
    2.0408   -1.5591    0.0000 N   0  0  0  0  0  0  0  0  0  0  0  0
    1.2365   -1.7427    0.0000 N   0  0  0  0  0  0  0  0  0  0  0  0
  1  2  2  0
  2  3  1  0
  3  4  2  0
  4  5  1  0
  5  6  2  0
  1  6  1  0
  5  7  1  0
  7  8  2  0
  8  9  1  0
  9 10  2  0
 10 11  1  0
  4 11  1  0
M  END
>  <DATABASE_ID>  (1) 
DB12537

>  <DATABASE_NAME>  (1) 
drugbank

>  <SMILES>  (1) 
N1N=CC=CC2=CC=CC=C12

>  <INCHI_IDENTIFIER>  (1) 
InChI=1S/C9H8N2/c1-2-6-9-8(4-1)5-3-7-10-11-9/h1-7,11H

>  <INCHI_KEY>  (1) 
SVUOLADPCWQTTE-UHFFFAOYSA-N

>  <FORMULA>  (1) 
C9H8N2

>  <MOLECULAR_WEIGHT>  (1) 
144.177

>  <EXACT_MASS>  (1) 
144.068748266

>  <JCHEM_ACCEPTOR_COUNT>  (1) 
2

>  <JCHEM_ATOM_COUNT>  (1) 
19

>  <JCHEM_AVERAGE_POLARIZABILITY>  (1) 
15.194398989596225

>  <JCHEM_BIOAVAILABILITY>  (1) 
1

>  <JCHEM_DONOR_COUNT>  (1) 
1

>  <JCHEM_FORMAL_CHARGE>  (1) 
0

>  <JCHEM_GHOSE_FILTER>  (1) 
0

>  <JCHEM_IUPAC>  (1) 
1H-1,2-benzodiazepine

>  <ALOGPS_LOGP>  (1) 
2.90

>  <JCHEM_LOGP>  (1) 
2.1190887829999996

>  <ALOGPS_LOGS>  (1) 
-2.15

>  <JCHEM_MDDR_LIKE_RULE>  (1) 
0

>  <JCHEM_NUMBER_OF_RINGS>  (1) 
2

>  <JCHEM_PHYSIOLOGICAL_CHARGE>  (1) 
0

>  <JCHEM_PKA_STRONGEST_ACIDIC>  (1) 
5.545953746826277

>  <JCHEM_PKA_STRONGEST_BASIC>  (1) 
16.867441280241884

>  <JCHEM_POLAR_SURFACE_AREA>  (1) 
24.39

>  <JCHEM_REFRACTIVITY>  (1) 
47.8142

>  <JCHEM_ROTATABLE_BOND_COUNT>  (1) 
0

>  <JCHEM_RULE_OF_FIVE>  (1) 
1

>  <ALOGPS_SOLUBILITY>  (1) 
1.02e+00 g/l

>  <JCHEM_TRADITIONAL_IUPAC>  (1) 
1H-1,2-benzodiazepine

>  <JCHEM_VEBER_RULE>  (1) 
1

>  <DRUGBANK_ID>  (1) 
DB12537

>  <DRUG_GROUPS>  (1) 
approved; investigational; withdrawn

>  <GENERIC_NAME>  (1) 
1,2-Benzodiazepine

>  <SYNONYMS>  (1) 
1,2-Benzodiazepine; 1H-1,2-Benzodiazepine; Benzodiazepine

$$$$
