704
     RDKit          2D

 27 32  0  0  1  0  0  0  0  0999 V2000
    1.9356   -0.2231    0.0000 O   0  0  0  0  0  0  0  0  0  0  0  0
    4.4727   -1.7584    0.0000 O   0  0  0  0  0  0  0  0  0  0  0  0
    1.7349   -2.3527    0.0000 O   0  0  0  0  0  0  0  0  0  0  0  0
    1.7349    1.8149    0.0000 O   0  0  0  0  0  0  0  0  0  0  0  0
    5.3440   -1.0939    0.0000 N   0  0  0  0  0  0  0  0  0  0  0  0
    3.2006   -0.6814    0.0000 C   0  0  0  0  0  0  0  0  0  0  0  0
    3.9151   -1.0939    0.0000 C   0  0  0  0  0  0  0  0  0  0  0  0
    4.6296   -0.6814    0.0000 C   0  0  0  0  0  0  0  0  0  0  0  0
    2.4861   -1.0939    0.0000 C   0  0  0  0  0  0  0  0  0  0  0  0
    3.6773   -0.0764    0.0000 C   0  0  0  0  0  0  0  0  0  0  0  0
    3.2006    0.1436    0.0000 C   0  0  0  0  0  0  0  0  0  0  0  0
    3.9151   -1.9190    0.0000 C   0  0  0  0  0  0  0  0  0  0  0  0
    4.8506   -0.0764    0.0000 C   0  0  0  0  0  0  0  0  0  0  0  0
    4.6296    0.1436    0.0000 C   0  0  0  0  0  0  0  0  0  0  0  0
    3.9151    0.5561    0.0000 C   0  0  0  0  0  0  0  0  0  0  0  0
    5.9350   -1.7290    0.0000 C   0  0  0  0  0  0  0  0  0  0  0  0
    3.2006   -2.3315    0.0000 C   0  0  0  0  0  0  0  0  0  0  0  0
    6.7804   -1.5349    0.0000 C   0  0  0  0  0  0  0  0  0  0  0  0
    2.4861   -1.9190    0.0000 C   0  0  0  0  0  0  0  0  0  0  0  0
    2.4861    0.5561    0.0000 C   0  0  0  0  0  0  0  0  0  0  0  0
    7.6097   -1.7894    0.0000 C   0  0  0  0  0  0  0  0  0  0  0  0
    7.4155   -0.9440    0.0000 C   0  0  0  0  0  0  0  0  0  0  0  0
    3.9151    1.3811    0.0000 C   0  0  0  0  0  0  0  0  0  0  0  0
    2.4861    1.3811    0.0000 C   0  0  0  0  0  0  0  0  0  0  0  0
    3.2006    1.7936    0.0000 C   0  0  0  0  0  0  0  0  0  0  0  0
    4.8675   -1.3334    0.0000 H   0  0  0  0  0  0  0  0  0  0  0  0
    1.8196   -1.2870    0.0000 H   0  0  0  0  0  0  0  0  0  0  0  0
  1  9  1  0
  1 20  1  0
  7  2  1  1
  3 19  2  0
  4 24  1  0
  5  8  1  0
  5 13  1  0
  5 16  1  0
  6  7  1  0
  6  9  1  0
  6 10  1  1
  6 11  1  0
  7  8  1  0
  7 12  1  0
  8 14  1  0
  8 26  1  6
  9 19  1  0
  9 27  1  1
 10 13  1  0
 11 15  2  0
 11 20  1  0
 12 17  1  0
 14 15  1  0
 15 23  1  0
 16 18  1  0
 17 19  1  0
 18 21  1  0
 18 22  1  0
 20 24  2  0
 21 22  1  0
 23 25  2  0
 24 25  1  0
M  END
>  <DATABASE_ID>  (1) 
DB00704

>  <DATABASE_NAME>  (1) 
drugbank

>  <SMILES>  (1) 
[H][C@@]12OC3=C(O)C=CC4=C3[C@@]11CCN(CC3CC3)[C@]([H])(C4)[C@]1(O)CCC2=O

>  <INCHI_IDENTIFIER>  (1) 
InChI=1S/C20H23NO4/c22-13-4-3-12-9-15-20(24)6-5-14(23)18-19(20,16(12)17(13)25-18)7-8-21(15)10-11-1-2-11/h3-4,11,15,18,22,24H,1-2,5-10H2/t15-,18+,19+,20-/m1/s1

>  <INCHI_KEY>  (1) 
DQCKKXVULJGBQN-XFWGSAIBSA-N

>  <FORMULA>  (1) 
C20H23NO4

>  <MOLECULAR_WEIGHT>  (1) 
341.4009

>  <EXACT_MASS>  (1) 
341.162708229

>  <JCHEM_ACCEPTOR_COUNT>  (1) 
5

>  <JCHEM_ATOM_COUNT>  (1) 
48

>  <JCHEM_AVERAGE_NEUTRAL_MICROSPECIES_CHARGE>  (1) 
0.9946473340432758

>  <JCHEM_AVERAGE_POLARIZABILITY>  (1) 
36.02714488741152

>  <JCHEM_BIOAVAILABILITY>  (1) 
1

>  <JCHEM_DONOR_COUNT>  (1) 
2

>  <JCHEM_FORMAL_CHARGE>  (1) 
0

>  <JCHEM_GHOSE_FILTER>  (1) 
1

>  <JCHEM_IUPAC>  (1) 
(1S,5R,13R,17S)-4-(cyclopropylmethyl)-10,17-dihydroxy-12-oxa-4-azapentacyclo[9.6.1.0^{1,13}.0^{5,17}.0^{7,18}]octadeca-7(18),8,10-trien-14-one

>  <ALOGPS_LOGP>  (1) 
2.07

>  <JCHEM_LOGP>  (1) 
1.2708075819906524

>  <ALOGPS_LOGS>  (1) 
-2.05

>  <JCHEM_MDDR_LIKE_RULE>  (1) 
0

>  <JCHEM_NEUTRAL_CHARGE>  (1) 
1

>  <JCHEM_NUMBER_OF_RINGS>  (1) 
6

>  <JCHEM_PHYSIOLOGICAL_CHARGE>  (1) 
1

>  <JCHEM_PKA>  (1) 
13.586902783304307

>  <JCHEM_PKA_STRONGEST_ACIDIC>  (1) 
10.20287200555293

>  <JCHEM_PKA_STRONGEST_BASIC>  (1) 
9.346036841421869

>  <JCHEM_POLAR_SURFACE_AREA>  (1) 
70.0

>  <JCHEM_REFRACTIVITY>  (1) 
91.50150000000001

>  <JCHEM_ROTATABLE_BOND_COUNT>  (1) 
2

>  <JCHEM_RULE_OF_FIVE>  (1) 
1

>  <ALOGPS_SOLUBILITY>  (1) 
3.07e+00 g/l

>  <JCHEM_TRADITIONAL_IUPAC>  (1) 
tetrahydrofolic acid

>  <JCHEM_VEBER_RULE>  (1) 
0

>  <DRUGBANK_ID>  (1) 
DB00704

>  <SECONDARY_ACCESSION_NUMBERS>  (1) 
APRD00005; DB05067

>  <DRUG_GROUPS>  (1) 
approved; investigational; vet_approved

>  <GENERIC_NAME>  (1) 
Naltrexone

>  <SYNONYMS>  (1) 
17-(Cyclopropylmethyl)-4,5-epoxy-3,14-dihydroxymorphinan-6-one; 17-(Cyclopropylmethyl)-4,5α-epoxy-3,14-dihydroxymorphinan-6-one; N-Cyclopropylmethyl-14-hydroxydihydromorphinone; N-Cyclopropylmethylnoroxymorphone; Naltrexon; Naltrexona; Naltrexone; Naltrexonum

>  <PRODUCTS>  (1) 
Addex-1000; Apo-naltrexone; Contrave; Contrave Extended-Release; Embeda; Mysimba; Naltrexone; Naltrexone Hcl; Naltrexone Hydrochloride; Naltrexone Hydrochloride Tablets USP; Naltrexone Hydrochloride and Bupropion Hydrochloride Extended-Release; Revia; Revia - Tab 50mg; Rpc-naltrexone; Troxyca ER; Vivitrol

>  <INTERNATIONAL_BRANDS>  (1) 
Abernil; Adepend; Antaxon; Antaxone; Arrop; Celupan; Depade; Dependex; Nalerona; Nalorex; Naltax; Naltrekson; Narcoral; Neksi; Nemexin; Opizone; Revez; Trexan; Vivitrex

>  <SALTS>  (1) 
Naltrexone hydrochloride

$$$$
