
     RDKit          2D

 40 45  0  0  0  0  0  0  0  0999 V2000
    6.3569   -2.7604    0.0000 C   0  0  0  0  0  0  0  0  0  0  0  0
    7.0714   -2.3479    0.0000 C   0  0  0  0  0  0  0  0  0  0  0  0
    7.0714   -1.5229    0.0000 C   0  0  0  0  0  0  0  0  0  0  0  0
    7.7858   -1.1104    0.0000 C   0  0  0  0  0  0  0  0  0  0  0  0
    7.7858   -0.2854    0.0000 N   0  0  0  0  0  0  0  0  0  0  0  0
    7.0714    0.1271    0.0000 C   0  0  0  0  0  0  0  0  0  0  0  0
    6.3569   -0.2854    0.0000 N   0  0  0  0  0  0  0  0  0  0  0  0
    5.6424    0.1271    0.0000 C   0  0  0  0  0  0  0  0  0  0  0  0
    5.6424    0.9521    0.0000 N   0  0  0  0  0  0  0  0  0  0  0  0
    6.3569    1.3646    0.0000 C   0  0  0  0  0  0  0  0  0  0  0  0
    6.3569    2.1896    0.0000 C   0  0  0  0  0  0  0  0  0  0  0  0
    7.0714    2.6021    0.0000 N   0  0  0  0  0  0  0  0  0  0  0  0
    7.7858    2.1896    0.0000 C   0  0  0  0  0  0  0  0  0  0  0  0
    7.7858    1.3646    0.0000 N   0  0  0  0  0  0  0  0  0  0  0  0
    7.0714    0.9521    0.0000 C   0  0  0  0  0  0  0  0  0  0  0  0
    8.5003    2.6021    0.0000 N   0  0  0  0  0  0  0  0  0  0  0  0
    8.5003    3.4271    0.0000 C   0  0  0  0  0  0  0  0  0  0  0  0
    9.2148    3.8396    0.0000 C   0  0  0  0  0  0  0  0  0  0  0  0
    9.9292    3.4271    0.0000 C   0  0  0  0  0  0  0  0  0  0  0  0
    9.9292    2.6021    0.0000 C   0  0  0  0  0  0  0  0  0  0  0  0
    9.2148    2.1896    0.0000 C   0  0  0  0  0  0  0  0  0  0  0  0
   10.6437    3.8396    0.0000 N   0  0  0  0  0  0  0  0  0  0  0  0
   11.3582    3.4271    0.0000 C   0  0  0  0  0  0  0  0  0  0  0  0
   11.3582    2.6021    0.0000 O   0  0  0  0  0  0  0  0  0  0  0  0
   12.0726    3.8396    0.0000 C   0  0  0  0  0  0  0  0  0  0  0  0
   12.7871    3.4271    0.0000 C   0  0  0  0  0  0  0  0  0  0  0  0
    8.5003   -1.5229    0.0000 C   0  0  0  0  0  0  0  0  0  0  0  0
    8.5003   -2.3479    0.0000 C   0  0  0  0  0  0  0  0  0  0  0  0
    7.7858   -2.7604    0.0000 C   0  0  0  0  0  0  0  0  0  0  0  0
    7.7858   -3.5854    0.0000 O   0  0  0  0  0  0  0  0  0  0  0  0
    7.0714   -3.9979    0.0000 C   0  0  0  0  0  0  0  0  0  0  0  0
    7.0714   -4.8229    0.0000 C   0  0  0  0  0  0  0  0  0  0  0  0
    6.3569   -5.2354    0.0000 C   0  0  0  0  0  0  0  0  0  0  0  0
    5.6424   -4.8229    0.0000 C   0  0  0  0  0  0  0  0  0  0  0  0
    4.8578   -5.0779    0.0000 N   0  0  0  0  0  0  0  0  0  0  0  0
    4.6029   -5.8625    0.0000 C   0  0  0  0  0  0  0  0  0  0  0  0
    4.3729   -4.4104    0.0000 C   0  0  0  0  0  0  0  0  0  0  0  0
    4.8578   -3.7430    0.0000 N   0  0  0  0  0  0  0  0  0  0  0  0
    5.6424   -3.9979    0.0000 C   0  0  0  0  0  0  0  0  0  0  0  0
    6.3569   -3.5854    0.0000 C   0  0  0  0  0  0  0  0  0  0  0  0
  1  2  1  0
  2  3  2  0
  3  4  1  0
  4  5  1  0
  5  6  1  0
  6  7  2  0
  7  8  1  0
  8  9  2  0
  9 10  1  0
 10 11  2  0
 11 12  1  0
 12 13  2  0
 13 14  1  0
 14 15  2  0
  6 15  1  0
 10 15  1  0
 13 16  1  0
 16 17  1  0
 17 18  1  0
 18 19  1  0
 19 20  1  0
 20 21  1  0
 16 21  1  0
 19 22  1  0
 22 23  1  0
 23 24  2  0
 23 25  1  0
 25 26  2  0
  4 27  2  0
 27 28  1  0
 28 29  2  0
  2 29  1  0
 29 30  1  0
 30 31  1  0
 31 32  2  0
 32 33  1  0
 33 34  2  0
 34 35  1  0
 35 36  1  0
 35 37  1  0
 37 38  2  0
 38 39  1  0
 34 39  1  0
 39 40  2  0
 31 40  1  0
M  END
>  <DATABASE_ID>  (1) 
DB18762

>  <DATABASE_NAME>  (1) 
drugbank

>  <SMILES>  (1) 
CN1C=NC2=CC(OC3=CC=C(NC4=NC=NC5=CN=C(N=C45)N4CCC(CC4)NC(=O)C=C)C=C3C)=CC=C12

>  <INCHI_IDENTIFIER>  (1) 
InChI=1S/C29H29N9O2/c1-4-26(39)34-19-9-11-38(12-10-19)29-30-15-23-27(36-29)28(32-16-31-23)35-20-5-8-25(18(2)13-20)40-21-6-7-24-22(14-21)33-17-37(24)3/h4-8,13-17,19H,1,9-12H2,2-3H3,(H,34,39)(H,31,32,35)

>  <INCHI_KEY>  (1) 
YSGNGFPNTLERCR-UHFFFAOYSA-N

>  <FORMULA>  (1) 
C29H29N9O2

>  <MOLECULAR_WEIGHT>  (1) 
535.612

>  <EXACT_MASS>  (1) 
535.24442121

>  <DRUGBANK_ID>  (1) 
DB18762

>  <DRUG_GROUPS>  (1) 
approved; investigational

>  <GENERIC_NAME>  (1) 
Zongertinib

>  <SYNONYMS>  (1) 
Zongertinib

>  <PRODUCTS>  (1) 
Hernexeos

$$$$
