
     RDKit          2D

 18 19  0  0  0  0  0  0  0  0999 V2000
    0.0160    0.7380    0.0000 N   0  0  0  0  0  0  0  0  0  0  0  0
    0.8410    0.7380    0.0000 C   0  0  0  0  0  0  0  0  0  0  0  0
   -0.3964    1.4524    0.0000 C   0  0  0  0  0  0  0  0  0  0  0  0
   -0.3964    0.0234    0.0000 C   0  0  0  0  0  0  0  0  0  0  0  0
    1.2535    0.0234    0.0000 C   0  0  0  0  0  0  0  0  0  0  0  0
    1.2535    1.4524    0.0000 N   0  0  0  0  0  0  0  0  0  0  0  0
   -1.2214    1.4524    0.0000 C   0  0  0  0  0  0  0  0  0  0  0  0
    0.0160   -0.6909    0.0000 C   0  0  0  0  0  0  0  0  0  0  0  0
    2.0785    0.0234    0.0000 C   0  0  0  0  0  0  0  0  0  0  0  0
    2.0785    1.4524    0.0000 C   0  0  0  0  0  0  0  0  0  0  0  0
   -1.7064    0.7849    0.0000 C   0  0  0  0  0  0  0  0  0  0  0  0
   -1.7064    2.1199    0.0000 C   0  0  0  0  0  0  0  0  0  0  0  0
   -0.3964   -1.4054    0.0000 N   0  0  0  0  0  0  0  0  0  0  0  0
    2.4910    0.7380    0.0000 C   0  0  0  0  0  0  0  0  0  0  0  0
   -2.4910    1.0399    0.0000 C   0  0  0  0  0  0  0  0  0  0  0  0
   -2.4910    1.8649    0.0000 S   0  0  0  0  0  0  0  0  0  0  0  0
   -1.2214   -1.4054    0.0000 C   0  0  0  0  0  0  0  0  0  0  0  0
    0.0160   -2.1199    0.0000 C   0  0  0  0  0  0  0  0  0  0  0  0
  1  2  1  0
  1  3  1  0
  1  4  1  0
  2  5  2  0
  2  6  1  0
  3  7  1  0
  4  8  1  0
  5  9  1  0
  6 10  2  0
  7 11  1  0
  7 12  2  0
  8 13  1  0
  9 14  2  0
 11 15  2  0
 12 16  1  0
 13 17  1  0
 13 18  1  0
 10 14  1  0
 15 16  1  0
M  END
>  <DATABASE_ID>  (1) 
DB16022

>  <DATABASE_NAME>  (1) 
drugbank

>  <SMILES>  (1) 
CN(C)CCN(CC1=CSC=C1)C1=CC=CC=N1

>  <INCHI_IDENTIFIER>  (1) 
InChI=1S/C14H19N3S/c1-16(2)8-9-17(11-13-6-10-18-12-13)14-5-3-4-7-15-14/h3-7,10,12H,8-9,11H2,1-2H3

>  <INCHI_KEY>  (1) 
RCGYDFVCAAKKNG-UHFFFAOYSA-N

>  <FORMULA>  (1) 
C14H19N3S

>  <MOLECULAR_WEIGHT>  (1) 
261.39

>  <EXACT_MASS>  (1) 
261.129968798

>  <JCHEM_ACCEPTOR_COUNT>  (1) 
3

>  <JCHEM_ATOM_COUNT>  (1) 
37

>  <JCHEM_AVERAGE_NEUTRAL_MICROSPECIES_CHARGE>  (1) 
1.0033026711542594

>  <JCHEM_AVERAGE_POLARIZABILITY>  (1) 
29.63953754568565

>  <JCHEM_BIOAVAILABILITY>  (1) 
1

>  <JCHEM_DONOR_COUNT>  (1) 
0

>  <JCHEM_FORMAL_CHARGE>  (1) 
0

>  <JCHEM_GHOSE_FILTER>  (1) 
1

>  <JCHEM_IUPAC>  (1) 
N-[2-(dimethylamino)ethyl]-N-[(thiophen-3-yl)methyl]pyridin-2-amine

>  <ALOGPS_LOGP>  (1) 
2.80

>  <JCHEM_LOGP>  (1) 
2.9816343703333326

>  <ALOGPS_LOGS>  (1) 
-2.84

>  <JCHEM_MDDR_LIKE_RULE>  (1) 
0

>  <JCHEM_NEUTRAL_CHARGE>  (1) 
1

>  <JCHEM_NUMBER_OF_RINGS>  (1) 
2

>  <JCHEM_PHYSIOLOGICAL_CHARGE>  (1) 
1

>  <JCHEM_PKA_STRONGEST_BASIC>  (1) 
8.76397188761556

>  <JCHEM_POLAR_SURFACE_AREA>  (1) 
19.370000000000005

>  <JCHEM_REFRACTIVITY>  (1) 
78.38069999999999

>  <JCHEM_ROTATABLE_BOND_COUNT>  (1) 
6

>  <JCHEM_RULE_OF_FIVE>  (1) 
1

>  <ALOGPS_SOLUBILITY>  (1) 
3.82e-01 g/l

>  <JCHEM_TRADITIONAL_IUPAC>  (1) 
ketocaine

>  <JCHEM_VEBER_RULE>  (1) 
1

>  <DRUGBANK_ID>  (1) 
DB16022

>  <DRUG_GROUPS>  (1) 
approved; withdrawn

>  <GENERIC_NAME>  (1) 
Thenyldiamine

>  <SYNONYMS>  (1) 
Tenildiamina; Thenyldiamine; Thenyldiaminum

>  <PRODUCTS>  (1) 
Neo Synephrine Nasal Spray; Neo-synephrine Nasal Spray

>  <SALTS>  (1) 
Thenyldiamine hydrochloride

$$$$
