
     RDKit          2D

  9  9  0  0  0  0  0  0  0  0999 V2000
    0.7145    1.2375    0.0000 C   0  0  0  0  0  0  0  0  0  0  0  0
    1.4289    0.8250    0.0000 C   0  0  0  0  0  0  0  0  0  0  0  0
    1.4289   -0.0000    0.0000 C   0  0  0  0  0  0  0  0  0  0  0  0
    0.7145   -0.4125    0.0000 N   0  0  0  0  0  0  0  0  0  0  0  0
    0.0000    0.0000    0.0000 C   0  0  0  0  0  0  0  0  0  0  0  0
    0.0000    0.8250    0.0000 C   0  0  0  0  0  0  0  0  0  0  0  0
   -0.7145    1.2375    0.0000 I   0  0  0  0  0  0  0  0  0  0  0  0
    2.1434    1.2375    0.0000 I   0  0  0  0  0  0  0  0  0  0  0  0
    0.7145    2.0625    0.0000 O   0  0  0  0  0  0  0  0  0  0  0  0
  1  2  1  0
  2  3  2  0
  3  4  1  0
  4  5  1  0
  5  6  2  0
  1  6  1  0
  6  7  1  0
  2  8  1  0
  1  9  2  0
M  END
>  <DATABASE_ID>  (1) 
DB20831

>  <DATABASE_NAME>  (1) 
drugbank

>  <SMILES>  (1) 
IC1=CNC=C(I)C1=O

>  <INCHI_IDENTIFIER>  (1) 
InChI=1S/C5H3I2NO/c6-3-1-8-2-4(7)5(3)9/h1-2H,(H,8,9)

>  <INCHI_KEY>  (1) 
FRPFEVLOFNAKBS-UHFFFAOYSA-N

>  <FORMULA>  (1) 
C5H3I2NO

>  <MOLECULAR_WEIGHT>  (1) 
346.894

>  <EXACT_MASS>  (1) 
346.8304

>  <DRUGBANK_ID>  (1) 
DB20831

>  <DRUG_GROUPS>  (1) 
approved; withdrawn

>  <GENERIC_NAME>  (1) 
Iopydone

>  <SYNONYMS>  (1) 
3,5-diiodo-4(1h)-pyridone; Iopydone

>  <PRODUCTS>  (1) 
Hytrast Sus

$$$$
