
     RDKit          2D

 13 13  0  0  0  0  0  0  0  0999 V2000
   -0.7143    0.0000    0.0000 C   0  0  0  0  0  0  0  0  0  0  0  0
   -1.4289    0.4123    0.0000 C   0  0  0  0  0  0  0  0  0  0  0  0
    0.0000    0.4125    0.0000 C   0  0  0  0  0  0  0  0  0  0  0  0
   -0.7143   -0.8249    0.0000 C   0  0  0  0  0  0  0  0  0  0  0  0
   -2.1433   -0.0001    0.0000 C   0  0  0  0  0  0  0  0  0  0  0  0
    0.7145    0.0000    0.0000 C   0  0  0  0  0  0  0  0  0  0  0  0
   -0.0001    1.2375    0.0000 O   0  0  0  0  0  0  0  0  0  0  0  0
   -1.4287   -1.2374    0.0000 C   0  0  0  0  0  0  0  0  0  0  0  0
   -2.1433   -0.8251    0.0000 C   0  0  0  0  0  0  0  0  0  0  0  0
   -2.8579    0.4121    0.0000 O   0  0  0  0  0  0  0  0  0  0  0  0
    1.4288    0.4126    0.0000 N   0  0  0  0  0  0  0  0  0  0  0  0
    2.1433    0.0001    0.0000 C   0  0  0  0  0  0  0  0  0  0  0  0
    2.8579    0.4127    0.0000 C   0  0  0  0  0  0  0  0  0  0  0  0
  1  2  2  0
  1  3  1  0
  1  4  1  0
  2  5  1  0
  3  6  1  0
  3  7  1  0
  4  8  2  0
  5  9  2  0
  5 10  1  0
  6 11  1  0
 11 12  1  0
 12 13  1  0
  8  9  1  0
M  END
>  <DATABASE_ID>  (1) 
DB08985

>  <DATABASE_NAME>  (1) 
drugbank

>  <SMILES>  (1) 
CCNCC(O)C1=CC=CC(O)=C1

>  <INCHI_IDENTIFIER>  (1) 
InChI=1S/C10H15NO2/c1-2-11-7-10(13)8-4-3-5-9(12)6-8/h3-6,10-13H,2,7H2,1H3

>  <INCHI_KEY>  (1) 
SQVIAVUSQAWMKL-UHFFFAOYSA-N

>  <FORMULA>  (1) 
C10H15NO2

>  <MOLECULAR_WEIGHT>  (1) 
181.2316

>  <EXACT_MASS>  (1) 
181.110278729

>  <JCHEM_ACCEPTOR_COUNT>  (1) 
3

>  <JCHEM_ATOM_COUNT>  (1) 
28

>  <JCHEM_AVERAGE_NEUTRAL_MICROSPECIES_CHARGE>  (1) 
0.994139204079534

>  <JCHEM_AVERAGE_POLARIZABILITY>  (1) 
20.330155327166683

>  <JCHEM_BIOAVAILABILITY>  (1) 
1

>  <JCHEM_DONOR_COUNT>  (1) 
3

>  <JCHEM_FORMAL_CHARGE>  (1) 
0

>  <JCHEM_GHOSE_FILTER>  (1) 
1

>  <JCHEM_IUPAC>  (1) 
3-[2-(ethylamino)-1-hydroxyethyl]phenol

>  <ALOGPS_LOGP>  (1) 
0.01

>  <JCHEM_LOGP>  (1) 
0.23289200996352086

>  <ALOGPS_LOGS>  (1) 
-1.12

>  <JCHEM_MDDR_LIKE_RULE>  (1) 
0

>  <JCHEM_NEUTRAL_CHARGE>  (1) 
1

>  <JCHEM_NUMBER_OF_RINGS>  (1) 
1

>  <JCHEM_PHYSIOLOGICAL_CHARGE>  (1) 
1

>  <JCHEM_PKA>  (1) 
14.239329783146266

>  <JCHEM_PKA_STRONGEST_ACIDIC>  (1) 
9.104647437506527

>  <JCHEM_PKA_STRONGEST_BASIC>  (1) 
9.732244838342494

>  <JCHEM_POLAR_SURFACE_AREA>  (1) 
52.49

>  <JCHEM_REFRACTIVITY>  (1) 
51.998

>  <JCHEM_ROTATABLE_BOND_COUNT>  (1) 
4

>  <JCHEM_RULE_OF_FIVE>  (1) 
1

>  <ALOGPS_SOLUBILITY>  (1) 
1.38e+01 g/l

>  <JCHEM_TRADITIONAL_IUPAC>  (1) 
unii-71TH42O2CQ

>  <JCHEM_VEBER_RULE>  (1) 
0

>  <DRUGBANK_ID>  (1) 
DB08985

>  <DRUG_GROUPS>  (1) 
approved; withdrawn

>  <GENERIC_NAME>  (1) 
Etilefrine

>  <SYNONYMS>  (1) 
Etilefrina; Etilefrine; Etilefrinum

>  <INTERNATIONAL_BRANDS>  (1) 
Apocretin; Circupon; Effontil; Effortil; Effortilvet; Eti-Puren; Kertasin; Phetanol; Phetasin; Tonus-Forte; Updormin

>  <SALTS>  (1) 
Etilefrine hydrochloride

$$$$
