
     RDKit          2D

 32 35  0  0  1  0  0  0  0  0999 V2000
   -1.2270    3.3208    0.0000 C   0  0  0  0  0  0  0  0  0  0  0  0
    2.5860   -0.4333    0.0000 C   0  0  0  0  0  0  0  0  0  0  0  0
   -0.2718   -0.4333    0.0000 C   0  0  0  0  0  0  0  0  0  0  0  0
    0.4426   -0.8458    0.0000 C   0  0  0  0  0  0  0  0  0  0  0  0
   -0.2718    0.3916    0.0000 C   0  0  0  0  0  0  0  0  0  0  0  0
   -2.1183   -0.8722    0.0000 C   0  0  0  0  0  0  0  0  0  0  0  0
   -0.7593   -0.4306    0.0000 C   0  0  0  0  0  0  0  0  0  0  0  0
   -2.3732   -0.0876    0.0000 C   0  0  0  0  0  0  0  0  0  0  0  0
   -1.0142    0.3539    0.0000 C   0  0  0  0  0  0  0  0  0  0  0  0
    1.1571   -2.9083    0.0000 C   0  0  0  0  0  0  0  0  0  0  0  0
    0.4426   -3.3208    0.0000 C   0  0  0  0  0  0  0  0  0  0  0  0
    1.1571    0.3916    0.0000 C   0  0  0  0  0  0  0  0  0  0  0  0
   -1.5413   -2.4958    0.0000 C   0  0  0  0  0  0  0  0  0  0  0  0
   -1.5241    1.9231    0.0000 C   0  0  0  0  0  0  0  0  0  0  0  0
   -1.7791    2.7077    0.0000 C   0  0  0  0  0  0  0  0  0  0  0  0
    1.8715   -0.8458    0.0000 C   0  0  0  0  0  0  0  0  0  0  0  0
   -1.3114   -1.0438    0.0000 C   0  0  0  0  0  0  0  0  0  0  0  0
    1.1571   -0.4333    0.0000 C   0  0  0  0  0  0  0  0  0  0  0  0
    0.4426    0.8041    0.0000 C   0  0  0  0  0  0  0  0  0  0  0  0
   -1.8212    0.5254    0.0000 C   0  0  0  0  0  0  0  0  0  0  0  0
   -1.0564   -1.8284    0.0000 C   0  0  0  0  0  0  0  0  0  0  0  0
    1.1571   -2.0833    0.0000 C   0  0  0  0  0  0  0  0  0  0  0  0
   -0.2718   -2.9083    0.0000 C   0  0  0  0  0  0  0  0  0  0  0  0
    0.4426    1.6291    0.0000 F   0  0  0  0  0  0  0  0  0  0  0  0
   -2.5860    2.8793    0.0000 N   0  0  0  0  0  0  0  0  0  0  0  0
   -1.0564   -3.1633    0.0000 N   0  0  0  0  0  0  0  0  0  0  0  0
    1.8715   -1.6708    0.0000 N   0  0  0  0  0  0  0  0  0  0  0  0
    0.4426   -1.6708    0.0000 N   0  0  0  0  0  0  0  0  0  0  0  0
   -0.2718   -2.0833    0.0000 N   0  0  0  0  0  0  0  0  0  0  0  0
   -2.0761    1.3100    0.0000 O   0  0  0  0  0  0  0  0  0  0  0  0
   -0.9721    2.5362    0.0000 H   0  0  0  0  0  0  0  0  0  0  0  0
    1.8715   -0.0208    0.0000 H   0  0  0  0  0  0  0  0  0  0  0  0
 15  1  1  0
 16  2  1  0
  3  4  2  0
  3  5  1  0
  4 18  1  0
  5 19  2  0
  6  8  2  0
  6 17  1  0
  7  9  1  0
  7 17  2  0
  8 20  1  0
  9 20  2  0
 10 11  2  0
 10 22  1  0
 11 23  1  0
 12 18  2  0
 12 19  1  0
 13 21  2  0
 13 26  1  0
 15 14  1  0
 14 30  1  0
 15 31  1  1
 15 25  1  0
 16 32  1  6
 16 18  1  0
 16 27  1  0
 17 21  1  0
 19 24  1  0
 20 30  1  0
 21 29  1  0
 22 27  2  0
 22 28  1  0
 23 26  2  0
 23 29  1  0
 28 29  1  0
M  END
>  <DATABASE_ID>  (1) 
DB18711

>  <DATABASE_NAME>  (1) 
drugbank

>  <SMILES>  (1) 
[H][C@](C)(N)COC1=CC=C(C=C1)C1=CN=C2C=C\C(NN12)=N\[C@]([H])(C)C1=CC(F)=CC=C1

>  <INCHI_IDENTIFIER>  (1) 
InChI=1S/C23H24FN5O/c1-15(25)14-30-20-8-6-17(7-9-20)21-13-26-23-11-10-22(28-29(21)23)27-16(2)18-4-3-5-19(24)12-18/h3-13,15-16H,14,25H2,1-2H3,(H,27,28)/t15-,16-/m1/s1

>  <INCHI_KEY>  (1) 
HEVHTYMYEMEBPX-HZPDHXFCSA-N

>  <FORMULA>  (1) 
C23H24FN5O

>  <MOLECULAR_WEIGHT>  (1) 
405.477

>  <EXACT_MASS>  (1) 
405.196488576

>  <DRUGBANK_ID>  (1) 
DB18711

>  <DRUG_GROUPS>  (1) 
approved; investigational

>  <GENERIC_NAME>  (1) 
Taletrectinib

>  <SYNONYMS>  (1) 
Taletrectinib

>  <PRODUCTS>  (1) 
Ibtrozi

>  <SALTS>  (1) 
Taletrectinib adipate

$$$$
