Tyramine.mol
     RDKit          2D

 17 18  0  0  0  0  0  0  0  0999 V2000
   -2.9660    0.0346    0.0000 O   0  0  0  0  0  0  0  0  0  0  0  0
   -2.3248   -0.4846    0.0000 C   0  0  0  0  0  0  0  0  0  0  0  0
   -1.5546   -0.1889    0.0000 C   0  0  0  0  0  0  0  0  0  0  0  0
   -1.3411    0.6079    0.0000 C   0  0  0  0  0  0  0  0  0  0  0  0
   -1.8603    1.2491    0.0000 O   0  0  0  0  0  0  0  0  0  0  0  0
   -0.5172    0.6511    0.0000 C   0  0  0  0  0  0  0  0  0  0  0  0
   -0.0679    1.3430    0.0000 O   0  0  0  0  0  0  0  0  0  0  0  0
   -0.2216   -0.1191    0.0000 C   0  0  0  0  0  0  0  0  0  0  0  0
   -0.8627   -0.6383    0.0000 O   0  0  0  0  0  0  0  0  0  0  0  0
    0.5753   -0.3326    0.0000 N   0  0  0  0  0  0  0  0  0  0  0  0
    1.1587    0.2508    0.0000 C   0  0  0  0  0  0  0  0  0  0  0  0
    0.9451    1.0476    0.0000 O   0  0  0  0  0  0  0  0  0  0  0  0
    1.9556    0.0372    0.0000 N   0  0  0  0  0  0  0  0  0  0  0  0
    2.1691   -0.7597    0.0000 C   0  0  0  0  0  0  0  0  0  0  0  0
    2.9660   -0.9732    0.0000 O   0  0  0  0  0  0  0  0  0  0  0  0
    1.5857   -1.3430    0.0000 C   0  0  0  0  0  0  0  0  0  0  0  0
    0.7888   -1.1295    0.0000 C   0  0  0  0  0  0  0  0  0  0  0  0
  1  2  1  0
  3  2  1  6
  3  4  1  0
  4  5  1  1
  4  6  1  0
  6  7  1  1
  6  8  1  0
  8  9  1  0
  3  9  1  0
  8 10  1  6
 10 11  1  0
 11 12  2  0
 11 13  1  0
 13 14  1  0
 14 15  2  0
 14 16  1  0
 16 17  2  0
 10 17  1  0
M  END
>  <DATABASE_ID>  (1) 
DB02745

>  <DATABASE_NAME>  (1) 
drugbank

>  <SMILES>  (1) 
OC[C@H]1O[C@H]([C@H](O)[C@@H]1O)N1C=CC(=O)NC1=O

>  <INCHI_IDENTIFIER>  (1) 
InChI=1S/C9H12N2O6/c12-3-4-6(14)7(15)8(17-4)11-2-1-5(13)10-9(11)16/h1-2,4,6-8,12,14-15H,3H2,(H,10,13,16)/t4-,6-,7-,8-/m1/s1

>  <INCHI_KEY>  (1) 
DRTQHJPVMGBUCF-XVFCMESISA-N

>  <FORMULA>  (1) 
C9H12N2O6

>  <MOLECULAR_WEIGHT>  (1) 
244.2014

>  <EXACT_MASS>  (1) 
244.069536126

>  <JCHEM_ACCEPTOR_COUNT>  (1) 
6

>  <JCHEM_ATOM_COUNT>  (1) 
29

>  <JCHEM_AVERAGE_NEUTRAL_MICROSPECIES_CHARGE>  (1) 
-0.0019904850593716263

>  <JCHEM_AVERAGE_POLARIZABILITY>  (1) 
21.809000940587058

>  <JCHEM_BIOAVAILABILITY>  (1) 
1

>  <JCHEM_DONOR_COUNT>  (1) 
4

>  <JCHEM_FORMAL_CHARGE>  (1) 
0

>  <JCHEM_GHOSE_FILTER>  (1) 
0

>  <JCHEM_IUPAC>  (1) 
1-[(2R,3R,4S,5R)-3,4-dihydroxy-5-(hydroxymethyl)oxolan-2-yl]-1,2,3,4-tetrahydropyrimidine-2,4-dione

>  <ALOGPS_LOGP>  (1) 
-1.84

>  <JCHEM_LOGP>  (1) 
-2.415242141666667

>  <ALOGPS_LOGS>  (1) 
-0.26

>  <JCHEM_MDDR_LIKE_RULE>  (1) 
0

>  <JCHEM_NEUTRAL_CHARGE>  (1) 
0

>  <JCHEM_NUMBER_OF_RINGS>  (1) 
2

>  <JCHEM_PHYSIOLOGICAL_CHARGE>  (1) 
0

>  <JCHEM_PKA>  (1) 
12.620123384629311

>  <JCHEM_PKA_STRONGEST_ACIDIC>  (1) 
9.700740441527786

>  <JCHEM_PKA_STRONGEST_BASIC>  (1) 
-2.9802996389517045

>  <JCHEM_POLAR_SURFACE_AREA>  (1) 
119.32999999999998

>  <JCHEM_REFRACTIVITY>  (1) 
52.56559999999999

>  <JCHEM_ROTATABLE_BOND_COUNT>  (1) 
2

>  <JCHEM_RULE_OF_FIVE>  (1) 
1

>  <ALOGPS_SOLUBILITY>  (1) 
1.35e+02 g/l

>  <JCHEM_TRADITIONAL_IUPAC>  (1) 
tetrahydrofolic acid

>  <JCHEM_VEBER_RULE>  (1) 
0

>  <DRUGBANK_ID>  (1) 
DB02745

>  <SECONDARY_ACCESSION_NUMBERS>  (1) 
EXPT03205

>  <DRUG_GROUPS>  (1) 
approved; withdrawn

>  <GENERIC_NAME>  (1) 
Uridine

>  <SYNONYMS>  (1) 
Uridina; Uridine

$$$$
