
     RDKit          2D

 13  8  0  0  0  0  0  0  0  0999 V2000
    0.0000    0.0000    0.0000 O   0  0  0  0  0  0  0  0  0  0  0  0
    2.3571    0.0000    0.0000 O   0  0  0  0  0  0  0  0  0  0  0  0
   -0.1748   -4.4270    0.0000 O   0  0  0  0  0  0  0  0  0  0  0  0
   -0.1748   -3.6020    0.0000 Si  0  0  0  0  0  4  0  0  0  0  0  0
   -0.9998   -3.6020    0.0000 O   0  0  0  0  0  0  0  0  0  0  0  0
    0.6502   -3.6020    0.0000 O   0  0  0  0  0  0  0  0  0  0  0  0
   -0.1748   -2.7770    0.0000 O   0  0  0  0  0  0  0  0  0  0  0  0
    0.5397   -2.3645    0.0000 Si  0  0  0  0  0  4  0  0  0  0  0  0
    1.2542   -1.9520    0.0000 O   0  0  0  0  0  0  0  0  0  0  0  0
    0.1272   -1.6500    0.0000 O   0  0  0  0  0  0  0  0  0  0  0  0
    0.9522   -3.0789    0.0000 O   0  0  0  0  0  0  0  0  0  0  0  0
   -0.1748   -5.2520    0.0000 Al  0  0  0  0  0 15  0  0  0  0  0  0
   -1.8248   -3.6020    0.0000 Al  0  0  0  0  0 15  0  0  0  0  0  0
  3  4  1  0
  4  5  1  0
  4  6  1  0
  4  7  1  0
  7  8  1  0
  8  9  1  0
  8 10  1  0
  8 11  1  0
M  CHG  8   3  -1   5  -1   6  -1   9  -1  10  -1  11  -1  12   3  13   3
M  END
>  <DATABASE_ID>  (1) 
DB01575

>  <DATABASE_NAME>  (1) 
drugbank

>  <SMILES>  (1) 
O.O.[Al+3].[Al+3].[O-][Si]([O-])([O-])O[Si]([O-])([O-])[O-]

>  <INCHI_IDENTIFIER>  (1) 
InChI=1S/2Al.O7Si2.2H2O/c;;1-8(2,3)7-9(4,5)6;;/h;;;2*1H2/q2*+3;-6;;

>  <INCHI_KEY>  (1) 
KGOIAFZMMLWXLM-UHFFFAOYSA-N

>  <FORMULA>  (1) 
Al2H4O9Si2

>  <MOLECULAR_WEIGHT>  (1) 
258.156

>  <EXACT_MASS>  (1) 
257.9024618

>  <JCHEM_ACCEPTOR_COUNT>  (1) 
7

>  <JCHEM_ATOM_COUNT>  (1) 
17

>  <JCHEM_AVERAGE_POLARIZABILITY>  (1) 
9.456914515829578

>  <JCHEM_BIOAVAILABILITY>  (1) 
1

>  <JCHEM_DONOR_COUNT>  (1) 
0

>  <JCHEM_FORMAL_CHARGE>  (1) 
0

>  <JCHEM_GHOSE_FILTER>  (1) 
0

>  <JCHEM_IUPAC>  (1) 
dialuminium(3+) ion [(trioxidosilyl)oxy]silanetris(olate) dihydrate

>  <JCHEM_LOGP>  (1) 
-3.8579999999999988

>  <JCHEM_MDDR_LIKE_RULE>  (1) 
0

>  <JCHEM_NUMBER_OF_RINGS>  (1) 
0

>  <JCHEM_PHYSIOLOGICAL_CHARGE>  (1) 
0

>  <JCHEM_PKA>  (1) 
8.89034414443609

>  <JCHEM_PKA_STRONGEST_ACIDIC>  (1) 
8.235861978134684

>  <JCHEM_PKA_STRONGEST_BASIC>  (1) 
-4.724927294362415

>  <JCHEM_POLAR_SURFACE_AREA>  (1) 
147.59

>  <JCHEM_REFRACTIVITY>  (1) 
10.0076

>  <JCHEM_ROTATABLE_BOND_COUNT>  (1) 
2

>  <JCHEM_RULE_OF_FIVE>  (1) 
1

>  <JCHEM_TRADITIONAL_IUPAC>  (1) 
dialuminium(3+) ion disilicate dihydrate

>  <JCHEM_VEBER_RULE>  (1) 
0

>  <DRUGBANK_ID>  (1) 
DB01575

>  <DRUG_GROUPS>  (1) 
approved

>  <GENERIC_NAME>  (1) 
Kaolin

>  <SYNONYMS>  (1) 
Kaolin; Kaolin, light

>  <PRODUCTS>  (1) 
2% Salicylic Acid FACIAL CLEANSER; Body Scrub; Derladie Vegan Pink Clay Mask Deep Pore Tightening; Diaret Liq; Diarex; Donnagel Liq; Donnagel-MB Sus; Donnagel-PG Liq; Dr Pore Tightening GLACIAL CLAY FACIAL MASK; Dr Pore Tightening PINK CLAY FACIAL MASK; Druide Biolove for Diaper Rash; Gold Bond Baby Cornstarch Plus; Kaolin Mixture W Pectin Nf; Kaolin Pectin Sus; Kaolin and Pectin Susp; Lil Goats Petite Chevre Fragrance free; Lil Goats Petite Chevre Original; Look At Me Mud Face Mask Mini Pack Aloe; Look At Me Mud Face Mask Mini Pack Green Tea; Look At Me Mud Face Mask Mini Pack Lotus; Look At Me Mud Face Mask Mini Pack Pomegranate; Medicated Cornstarch Baby Powder; Mefactory Pig Collagen 1step Piggy Nose Pack; No More Products; Poison Ivy/Oak; Pore Tightening Pearl Clay Mask; Pranicura; Pranicura 5; Pranicura II; Preferred Plus Medicated Baby; Protective Cream; QYO QYO Tangerine Bright Moist Peeling Pack; Sonatural Facial Design Deep Black Clay Mask; Sonatural Facial Design Pink Mud Mask; Sonatural The Pure Pore Tensing Carbonic Bubble Pop Clay Mask; W Lab ALL CLEAR MINT PACK

$$$$
