54841
     RDKit          2D

 19 20  0  0  1  0  0  0  0  0999 V2000
    3.0790   -0.2063    0.0000 O   0  0  0  0  0  0  0  0  0  0  0  0
    5.9370   -0.2063    0.0000 N   0  0  0  0  0  0  0  0  0  0  0  0
    3.7935    0.2063    0.0000 C   0  0  0  0  0  0  0  0  0  0  0  0
    4.5080   -0.2063    0.0000 C   0  0  0  0  0  0  0  0  0  0  0  0
    3.7935    1.0313    0.0000 C   0  0  0  0  0  0  0  0  0  0  0  0
    5.2224    0.2063    0.0000 C   0  0  0  0  0  0  0  0  0  0  0  0
    3.0790   -1.0313    0.0000 C   0  0  0  0  0  0  0  0  0  0  0  0
    4.5080    1.4438    0.0000 C   0  0  0  0  0  0  0  0  0  0  0  0
    3.0790    1.4438    0.0000 C   0  0  0  0  0  0  0  0  0  0  0  0
    2.3645   -1.4438    0.0000 C   0  0  0  0  0  0  0  0  0  0  0  0
    4.5080    2.2688    0.0000 C   0  0  0  0  0  0  0  0  0  0  0  0
    3.0790    2.2688    0.0000 C   0  0  0  0  0  0  0  0  0  0  0  0
    3.7935   -1.4438    0.0000 C   0  0  0  0  0  0  0  0  0  0  0  0
    3.7935    2.6813    0.0000 C   0  0  0  0  0  0  0  0  0  0  0  0
    6.6515    0.2063    0.0000 C   0  0  0  0  0  0  0  0  0  0  0  0
    2.3645   -2.2688    0.0000 C   0  0  0  0  0  0  0  0  0  0  0  0
    1.6500   -1.0313    0.0000 C   0  0  0  0  0  0  0  0  0  0  0  0
    3.7935   -2.2688    0.0000 C   0  0  0  0  0  0  0  0  0  0  0  0
    3.0790   -2.6813    0.0000 C   0  0  0  0  0  0  0  0  0  0  0  0
  3  1  1  0
  1  7  1  0
  2  6  1  0
  2 15  1  0
  3  4  1  1
  3  5  1  0
  4  6  1  0
  5  8  2  0
  5  9  1  0
  7 10  2  0
  7 13  1  0
  8 11  1  0
  9 12  2  0
 10 16  1  0
 10 17  1  0
 11 14  2  0
 12 14  1  0
 13 18  2  0
 16 19  2  0
 18 19  1  0
M  END
>  <DATABASE_ID>  (1) 
DB00289

>  <DATABASE_NAME>  (1) 
drugbank

>  <SMILES>  (1) 
CNCC[C@@H](OC1=CC=CC=C1C)C1=CC=CC=C1

>  <INCHI_IDENTIFIER>  (1) 
InChI=1S/C17H21NO/c1-14-8-6-7-11-16(14)19-17(12-13-18-2)15-9-4-3-5-10-15/h3-11,17-18H,12-13H2,1-2H3/t17-/m1/s1

>  <INCHI_KEY>  (1) 
VHGCDTVCOLNTBX-QGZVFWFLSA-N

>  <FORMULA>  (1) 
C17H21NO

>  <MOLECULAR_WEIGHT>  (1) 
255.3547

>  <EXACT_MASS>  (1) 
255.162314299

>  <JCHEM_ACCEPTOR_COUNT>  (1) 
2

>  <JCHEM_ATOM_COUNT>  (1) 
40

>  <JCHEM_AVERAGE_NEUTRAL_MICROSPECIES_CHARGE>  (1) 
0.9984289936272485

>  <JCHEM_AVERAGE_POLARIZABILITY>  (1) 
29.750245078143315

>  <JCHEM_BIOAVAILABILITY>  (1) 
1

>  <JCHEM_DONOR_COUNT>  (1) 
1

>  <JCHEM_FORMAL_CHARGE>  (1) 
0

>  <JCHEM_GHOSE_FILTER>  (1) 
1

>  <JCHEM_IUPAC>  (1) 
methyl[(3R)-3-(2-methylphenoxy)-3-phenylpropyl]amine

>  <ALOGPS_LOGP>  (1) 
3.95

>  <JCHEM_LOGP>  (1) 
3.8087924510000004

>  <ALOGPS_LOGS>  (1) 
-4.82

>  <JCHEM_MDDR_LIKE_RULE>  (1) 
0

>  <JCHEM_NEUTRAL_CHARGE>  (1) 
1

>  <JCHEM_NUMBER_OF_RINGS>  (1) 
2

>  <JCHEM_PHYSIOLOGICAL_CHARGE>  (1) 
1

>  <JCHEM_PKA_STRONGEST_BASIC>  (1) 
9.803139237207063

>  <JCHEM_POLAR_SURFACE_AREA>  (1) 
21.259999999999998

>  <JCHEM_REFRACTIVITY>  (1) 
79.43500000000002

>  <JCHEM_ROTATABLE_BOND_COUNT>  (1) 
6

>  <JCHEM_RULE_OF_FIVE>  (1) 
1

>  <ALOGPS_SOLUBILITY>  (1) 
3.90e-03 g/l

>  <JCHEM_TRADITIONAL_IUPAC>  (1) 
biotin

>  <JCHEM_VEBER_RULE>  (1) 
1

>  <DRUGBANK_ID>  (1) 
DB00289

>  <SECONDARY_ACCESSION_NUMBERS>  (1) 
APRD00614

>  <DRUG_GROUPS>  (1) 
approved; investigational

>  <GENERIC_NAME>  (1) 
Atomoxetine

>  <SYNONYMS>  (1) 
(-)-Tomoxetine; Atomoxetina; Atomoxetine; Tomoxetina; Tomoxetine; Tomoxetinum

>  <PRODUCTS>  (1) 
Ag-atomoxetine; Apo-atomoxetine; Atomoxetine; Atomoxetine Hydrochloride; Atomoxetine hydrochloride; Auro-atomoxetine; Dom-atomoxetine; Jamp Atomoxetine; Mylan-atomoxetine; PMS-atomoxetine; Ratio-atomoxetine; Riva-atomoxetine; Sandoz Atomoxetine; Strattera; Teva-atomoxetine

>  <INTERNATIONAL_BRANDS>  (1) 
Tomoxetin

>  <SALTS>  (1) 
Atomoxetine hydrochloride

$$$$
