
     RDKit          2D

 19  9  0  0  0  0  0  0  0  0999 V2000
    5.5798    0.0000    0.0000 O   0  0  0  0  0  0  0  0  0  0  0  0
    4.7540    0.0000    0.0000 O   0  0  0  0  0  0  0  0  0  0  0  0
    3.9282    0.0000    0.0000 O   0  0  0  0  0  0  0  0  0  0  0  0
    1.8636    0.0000    0.0000 O   0  0  0  0  0  0  0  0  0  0  0  0
    2.6894    0.0000    0.0000 Si  0  0  0  0  0  4  0  0  0  0  0  0
    3.0913   -0.7142    0.0000 O   0  0  0  0  0  0  0  0  0  0  0  0
    3.0913    0.7142    0.0000 O   0  0  0  0  0  0  0  0  0  0  0  0
   -0.2008    0.0000    0.0000 O   0  0  0  0  0  0  0  0  0  0  0  0
    0.6248    0.0000    0.0000 Si  0  0  0  0  0  4  0  0  0  0  0  0
    1.0266   -0.7142    0.0000 O   0  0  0  0  0  0  0  0  0  0  0  0
    1.0266    0.7142    0.0000 O   0  0  0  0  0  0  0  0  0  0  0  0
   -2.2654    0.0000    0.0000 O   0  0  0  0  0  0  0  0  0  0  0  0
   -1.4396    0.0000    0.0000 Si  0  0  0  0  0  4  0  0  0  0  0  0
   -1.0266   -0.7142    0.0000 O   0  0  0  0  0  0  0  0  0  0  0  0
   -1.0266    0.7142    0.0000 O   0  0  0  0  0  0  0  0  0  0  0  0
   -3.0913    0.0000    0.0000 Mg  0  0  0  0  0 15  0  0  0  0  0  0
   -3.9282    0.0000    0.0000 Mg  0  0  0  0  0 15  0  0  0  0  0  0
   -4.7539    0.0000    0.0000 Al  0  0  0  0  0 15  0  0  0  0  0  0
   -5.5798    0.0000    0.0000 Al  0  0  0  0  0 15  0  0  0  0  0  0
  4  5  1  0
  5  6  2  0
  5  7  1  0
  8  9  1  0
  9 10  2  0
  9 11  1  0
 12 13  1  0
 13 14  2  0
 13 15  1  0
M  CHG  8   2  -2   3  -2   4  -1   7  -1   8  -1  11  -1  12  -1  15  -1
M  CHG  4  16   2  17   2  18   3  19   3
M  END
>  <DATABASE_ID>  (1) 
DB14116

>  <DATABASE_NAME>  (1) 
drugbank

>  <SMILES>  (1) 
O.[O--].[O--].[Mg++].[Mg++].[Al+3].[Al+3].[O-][Si]([O-])=O.[O-][Si]([O-])=O.[O-][Si]([O-])=O

>  <INCHI_IDENTIFIER>  (1) 
InChI=1S/2Al.2Mg.3O3Si.H2O.2O/c;;;;3*1-4(2)3;;;/h;;;;;;;1H2;;/q2*+3;2*+2;3*-2;;2*-2

>  <INCHI_KEY>  (1) 
JAUGGEIKQIHSMF-UHFFFAOYSA-N

>  <FORMULA>  (1) 
Al2H2Mg2O12Si3

>  <MOLECULAR_WEIGHT>  (1) 
380.832

>  <EXACT_MASS>  (1) 
379.8185655

>  <JCHEM_ACCEPTOR_COUNT>  (1) 
3

>  <JCHEM_ATOM_COUNT>  (1) 
21

>  <JCHEM_AVERAGE_POLARIZABILITY>  (1) 
4.217826221245687

>  <JCHEM_BIOAVAILABILITY>  (1) 
1

>  <JCHEM_DONOR_COUNT>  (1) 
0

>  <JCHEM_FORMAL_CHARGE>  (1) 
0

>  <JCHEM_GHOSE_FILTER>  (1) 
0

>  <JCHEM_IUPAC>  (1) 
dialuminium(3+) dimagnesium(2+) tris(oxosilanebis(olate)) hydrate dioxidandiide

>  <JCHEM_LOGP>  (1) 
-1.3787999999999996

>  <JCHEM_MDDR_LIKE_RULE>  (1) 
0

>  <JCHEM_NUMBER_OF_RINGS>  (1) 
0

>  <JCHEM_PHYSIOLOGICAL_CHARGE>  (1) 
-1

>  <JCHEM_PKA>  (1) 
8.301029995663981

>  <JCHEM_PKA_STRONGEST_ACIDIC>  (1) 
2.6989700043360183

>  <JCHEM_POLAR_SURFACE_AREA>  (1) 
63.19

>  <JCHEM_REFRACTIVITY>  (1) 
4.3287

>  <JCHEM_ROTATABLE_BOND_COUNT>  (1) 
0

>  <JCHEM_RULE_OF_FIVE>  (1) 
1

>  <JCHEM_TRADITIONAL_IUPAC>  (1) 
dialuminium(3+) dimagnesium(2+) tris(oxosilanebis(olate)) hydrate dioxidandiide

>  <JCHEM_VEBER_RULE>  (1) 
0

>  <DRUGBANK_ID>  (1) 
DB14116

>  <DRUG_GROUPS>  (1) 
approved; investigational

>  <GENERIC_NAME>  (1) 
Silodrate

>  <SYNONYMS>  (1) 
Magnesium aluminometasilicate; Silodrate; Simaldrate

>  <PRODUCTS>  (1) 
Inon Ace

$$$$
