1181
     RDKit          2D

 14 14  0  0  1  0  0  0  0  0999 V2000
    1.6500    0.6040    0.0000 Cl  0  0  0  0  0  0  0  0  0  0  0  0
    4.5080   -2.2540    0.0000 Cl  0  0  0  0  0  0  0  0  0  0  0  0
    4.5080    0.6040    0.0000 P   0  0  0  0  0  0  0  0  0  0  0  0
    5.2224    1.0165    0.0000 O   0  0  0  0  0  0  0  0  0  0  0  0
    4.9205   -0.1106    0.0000 O   0  0  0  0  0  0  0  0  0  0  0  0
    3.7935    1.0165    0.0000 N   0  0  0  0  0  0  0  0  0  0  0  0
    4.0955   -0.1106    0.0000 N   0  0  0  0  0  0  0  0  0  0  0  0
    3.7935    1.8415    0.0000 C   0  0  0  0  0  0  0  0  0  0  0  0
    4.5080    2.2540    0.0000 C   0  0  0  0  0  0  0  0  0  0  0  0
    5.2224    1.8415    0.0000 C   0  0  0  0  0  0  0  0  0  0  0  0
    3.0791    0.6040    0.0000 C   0  0  0  0  0  0  0  0  0  0  0  0
    4.5080   -0.8250    0.0000 C   0  0  0  0  0  0  0  0  0  0  0  0
    2.3645    1.0165    0.0000 C   0  0  0  0  0  0  0  0  0  0  0  0
    4.0955   -1.5395    0.0000 C   0  0  0  0  0  0  0  0  0  0  0  0
  1 13  1  0
  2 14  1  0
  3  4  1  0
  3  5  2  0
  3  6  1  0
  3  7  1  0
  4 10  1  0
  6  8  1  0
  6 11  1  0
  7 12  1  0
  8  9  1  0
  9 10  1  0
 11 13  1  0
 12 14  1  0
M  END
>  <DATABASE_ID>  (1) 
DB01181

>  <DATABASE_NAME>  (1) 
drugbank

>  <SMILES>  (1) 
ClCCNP1(=O)OCCCN1CCCl

>  <INCHI_IDENTIFIER>  (1) 
InChI=1S/C7H15Cl2N2O2P/c8-2-4-10-14(12)11(6-3-9)5-1-7-13-14/h1-7H2,(H,10,12)

>  <INCHI_KEY>  (1) 
HOMGKSMUEGBAAB-UHFFFAOYSA-N

>  <FORMULA>  (1) 
C7H15Cl2N2O2P

>  <MOLECULAR_WEIGHT>  (1) 
261.086

>  <EXACT_MASS>  (1) 
260.02481966

>  <JCHEM_ACCEPTOR_COUNT>  (1) 
1

>  <JCHEM_ATOM_COUNT>  (1) 
29

>  <JCHEM_AVERAGE_NEUTRAL_MICROSPECIES_CHARGE>  (1) 
-2.3011046962856284e-08

>  <JCHEM_AVERAGE_POLARIZABILITY>  (1) 
23.943197490268794

>  <JCHEM_BIOAVAILABILITY>  (1) 
1

>  <JCHEM_DONOR_COUNT>  (1) 
1

>  <JCHEM_FORMAL_CHARGE>  (1) 
0

>  <JCHEM_GHOSE_FILTER>  (1) 
1

>  <JCHEM_IUPAC>  (1) 
3-(2-chloroethyl)-2-[(2-chloroethyl)amino]-1,3,2lambda5-oxazaphosphinan-2-one

>  <ALOGPS_LOGP>  (1) 
0.57

>  <JCHEM_LOGP>  (1) 
0.09654768666666613

>  <ALOGPS_LOGS>  (1) 
-1.24

>  <JCHEM_MDDR_LIKE_RULE>  (1) 
0

>  <JCHEM_NEUTRAL_CHARGE>  (1) 
0

>  <JCHEM_NUMBER_OF_RINGS>  (1) 
1

>  <JCHEM_PHYSIOLOGICAL_CHARGE>  (1) 
0

>  <JCHEM_PKA_STRONGEST_ACIDIC>  (1) 
14.638063611240124

>  <JCHEM_POLAR_SURFACE_AREA>  (1) 
41.57

>  <JCHEM_REFRACTIVITY>  (1) 
58.47810000000002

>  <JCHEM_ROTATABLE_BOND_COUNT>  (1) 
5

>  <JCHEM_RULE_OF_FIVE>  (1) 
1

>  <ALOGPS_SOLUBILITY>  (1) 
1.50e+01 g/l

>  <JCHEM_TRADITIONAL_IUPAC>  (1) 
tetrahydrofolic acid

>  <JCHEM_VEBER_RULE>  (1) 
0

>  <DRUGBANK_ID>  (1) 
DB01181

>  <SECONDARY_ACCESSION_NUMBERS>  (1) 
APRD00007

>  <DRUG_GROUPS>  (1) 
approved; investigational

>  <GENERIC_NAME>  (1) 
Ifosfamide

>  <SYNONYMS>  (1) 
3-(2-chloroethyl)-2-((2-chloroethyl)amino)tetrahydro-2H-1,3,2-oxazaphosphorine 2-oxide; Ifosfamida; Ifosfamide; Ifosfamidum; Iphosphamide; Isofosfamide; Isophosphamide; Isosfamide

>  <PRODUCTS>  (1) 
IFEX and MESNEX; Ifex; Ifex Pws 1gm/vial; Ifex Pws 2g/vial; Ifex Pws 3gm/vial; Ifosfamide; Ifosfamide and Mesna; Ifosfamide for Injection

>  <INTERNATIONAL_BRANDS>  (1) 
Celofos; Cuantil; Holoxan; Mitoxana

$$$$
