1043
     RDKit          2D

 13 15  0  0  1  0  0  0  0  0999 V2000
    2.5024   -1.4994    0.0000 N   0  0  0  0  0  0  0  0  0  0  0  0
    3.0826    0.9204    0.0000 C   0  0  0  0  0  0  0  0  0  0  0  0
    2.3807   -0.2951    0.0000 C   0  0  0  0  0  0  0  0  0  0  0  0
    2.5025   -0.6602    0.0000 C   0  0  0  0  0  0  0  0  0  0  0  0
    3.7843   -0.2951    0.0000 C   0  0  0  0  0  0  0  0  0  0  0  0
    2.3807    0.5153    0.0000 C   0  0  0  0  0  0  0  0  0  0  0  0
    2.5025    0.2170    0.0000 C   0  0  0  0  0  0  0  0  0  0  0  0
    1.6785   -0.7003    0.0000 C   0  0  0  0  0  0  0  0  0  0  0  0
    3.7843    0.5153    0.0000 C   0  0  0  0  0  0  0  0  0  0  0  0
    3.0826   -0.5492    0.0000 C   0  0  0  0  0  0  0  0  0  0  0  0
    3.2626   -1.0604    0.0000 C   0  0  0  0  0  0  0  0  0  0  0  0
    3.0826    1.7596    0.0000 C   0  0  0  0  0  0  0  0  0  0  0  0
    1.7873    0.2983    0.0000 C   0  0  0  0  0  0  0  0  0  0  0  0
  1  4  1  0
  2  6  1  0
  2  7  1  0
  2  9  1  0
  2 12  1  0
  3  6  1  0
  3  8  1  0
  3 10  1  0
  3 13  1  0
  4  7  1  0
  4  8  1  0
  4 11  1  0
  5  9  1  0
  5 10  1  0
  5 11  1  0
M  END
>  <DATABASE_ID>  (1) 
DB01043

>  <DATABASE_NAME>  (1) 
drugbank

>  <SMILES>  (1) 
CC12CC3CC(C)(C1)CC(N)(C3)C2

>  <INCHI_IDENTIFIER>  (1) 
InChI=1S/C12H21N/c1-10-3-9-4-11(2,6-10)8-12(13,5-9)7-10/h9H,3-8,13H2,1-2H3

>  <INCHI_KEY>  (1) 
BUGYDGFZZOZRHP-UHFFFAOYSA-N

>  <FORMULA>  (1) 
C12H21N

>  <MOLECULAR_WEIGHT>  (1) 
179.3018

>  <EXACT_MASS>  (1) 
179.167399677

>  <JCHEM_ACCEPTOR_COUNT>  (1) 
1

>  <JCHEM_ATOM_COUNT>  (1) 
34

>  <JCHEM_AVERAGE_NEUTRAL_MICROSPECIES_CHARGE>  (1) 
0.9997987014424147

>  <JCHEM_AVERAGE_POLARIZABILITY>  (1) 
21.82219396487168

>  <JCHEM_BIOAVAILABILITY>  (1) 
1

>  <JCHEM_DONOR_COUNT>  (1) 
1

>  <JCHEM_FORMAL_CHARGE>  (1) 
0

>  <JCHEM_GHOSE_FILTER>  (1) 
1

>  <JCHEM_IUPAC>  (1) 
3,5-dimethyladamantan-1-amine

>  <ALOGPS_LOGP>  (1) 
3.31

>  <JCHEM_LOGP>  (1) 
2.066041788333333

>  <ALOGPS_LOGS>  (1) 
-3.60

>  <JCHEM_MDDR_LIKE_RULE>  (1) 
0

>  <JCHEM_NEUTRAL_CHARGE>  (1) 
1

>  <JCHEM_NUMBER_OF_RINGS>  (1) 
3

>  <JCHEM_PHYSIOLOGICAL_CHARGE>  (1) 
1

>  <JCHEM_PKA_STRONGEST_BASIC>  (1) 
10.696071905405688

>  <JCHEM_POLAR_SURFACE_AREA>  (1) 
26.02

>  <JCHEM_REFRACTIVITY>  (1) 
54.4858

>  <JCHEM_ROTATABLE_BOND_COUNT>  (1) 
0

>  <JCHEM_RULE_OF_FIVE>  (1) 
1

>  <ALOGPS_SOLUBILITY>  (1) 
4.55e-02 g/l

>  <JCHEM_TRADITIONAL_IUPAC>  (1) 
tetrahydrofolic acid

>  <JCHEM_VEBER_RULE>  (1) 
1

>  <DRUGBANK_ID>  (1) 
DB01043

>  <SECONDARY_ACCESSION_NUMBERS>  (1) 
APRD00221

>  <DRUG_GROUPS>  (1) 
approved; investigational

>  <GENERIC_NAME>  (1) 
Memantine

>  <SYNONYMS>  (1) 
1-Amino-3,5-dimethyladamantane; 1,3-Dimethyl-5-adamantanamine; 3,5-Dimethyl-1-adamantanamine; 3,5-Dimethyl-1-aminoadamantane; 3,5-Dimethyltricyclo(3.3.1.1(3,7))decan-1-amine; Memantina; Memantine; Memantinum

>  <PRODUCTS>  (1) 
Act Memantine; Apo-memantine; Axura; Ebixa; Generic Drug; Jamp-memantine; Marixino; Memantine; Memantine Accord; Memantine HCL; Memantine Hydrochloride; Memantine Hydrochloride Tablets; Memantine Hydrochloride and Donepezil Hydrochloride; Memantine Lek; Memantine Merz; Memantine Mylan; Memantine Ratiopharm; Memantine and Donepezil; Memantine and Donepezil Hydrochlorides; Memantine and Donepezil Hydrochlorides Extended-release; Memantine hydrochloride; Mematine Hydrochloride; Mint-memantine; Mylan-memantine; Namenda; Namenda XR; Namzaric; Nemdatine; Novo-memantine; PMS-memantine; Ran-memantine; Ratio-memantine; Riva-memantine; Sandoz Memantine; Sandoz Memantine Fct

>  <INTERNATIONAL_BRANDS>  (1) 
Abixa; Akatinol; Memox

>  <SALTS>  (1) 
Memantine hydrochloride

$$$$
