
     RDKit          2D

 10  9  0  0  1  0  0  0  0  0999 V2000
   -2.1434   -0.1768    0.0000 N   0  0  0  0  0  0  0  0  0  0  0  0
   -1.4289    0.2357    0.0000 C   0  0  0  0  0  0  0  0  0  0  0  0
    1.4289    0.2357    0.0000 C   0  0  0  0  0  0  0  0  0  0  0  0
    2.1434   -0.1768    0.0000 O   0  0  0  0  0  0  0  0  0  0  0  0
    0.7145   -0.1768    0.0000 C   0  0  0  0  0  0  0  0  0  0  0  0
    0.0000    0.2357    0.0000 C   0  0  0  0  0  0  0  0  0  0  0  0
   -0.7145   -0.1768    0.0000 C   0  0  0  0  0  0  0  0  0  0  0  0
    1.4289    1.0606    0.0000 O   0  0  0  0  0  0  0  0  0  0  0  0
    0.7144   -1.0018    0.0000 N   0  0  0  0  0  0  0  0  0  0  0  0
   -1.4290    1.0607    0.0000 O   0  0  0  0  0  0  0  0  0  0  0  0
  1  2  1  0
 10  2  2  0
  3  8  2  0
  4  3  1  0
  5  3  1  0
  5  9  1  1
  6  5  1  0
  7  2  1  0
  7  6  1  0
M  END
>  <DATABASE_ID>  (1) 
DB00130

>  <DATABASE_NAME>  (1) 
drugbank

>  <SMILES>  (1) 
N[C@@H](CCC(N)=O)C(O)=O

>  <INCHI_IDENTIFIER>  (1) 
InChI=1S/C5H10N2O3/c6-3(5(9)10)1-2-4(7)8/h3H,1-2,6H2,(H2,7,8)(H,9,10)/t3-/m0/s1

>  <INCHI_KEY>  (1) 
ZDXPYRJPNDTMRX-VKHMYHEASA-N

>  <FORMULA>  (1) 
C5H10N2O3

>  <MOLECULAR_WEIGHT>  (1) 
146.1445

>  <EXACT_MASS>  (1) 
146.069142196

>  <JCHEM_ACCEPTOR_COUNT>  (1) 
4

>  <JCHEM_ATOM_COUNT>  (1) 
20

>  <JCHEM_AVERAGE_NEUTRAL_MICROSPECIES_CHARGE>  (1) 
-0.004836621149171298

>  <JCHEM_AVERAGE_POLARIZABILITY>  (1) 
13.868279050213307

>  <JCHEM_BIOAVAILABILITY>  (1) 
1

>  <JCHEM_DONOR_COUNT>  (1) 
3

>  <JCHEM_FORMAL_CHARGE>  (1) 
0

>  <JCHEM_GHOSE_FILTER>  (1) 
0

>  <JCHEM_IUPAC>  (1) 
(2S)-2-amino-4-carbamoylbutanoic acid

>  <ALOGPS_LOGP>  (1) 
-3.32

>  <JCHEM_LOGP>  (1) 
-4.001133405103188

>  <ALOGPS_LOGS>  (1) 
-0.17

>  <JCHEM_MDDR_LIKE_RULE>  (1) 
0

>  <JCHEM_NEUTRAL_CHARGE>  (1) 
0

>  <JCHEM_NUMBER_OF_RINGS>  (1) 
0

>  <JCHEM_PHYSIOLOGICAL_CHARGE>  (1) 
0

>  <JCHEM_PKA>  (1) 
16.24489083303041

>  <JCHEM_PKA_STRONGEST_ACIDIC>  (1) 
2.14714261629068

>  <JCHEM_PKA_STRONGEST_BASIC>  (1) 
9.312090619392574

>  <JCHEM_POLAR_SURFACE_AREA>  (1) 
106.41

>  <JCHEM_REFRACTIVITY>  (1) 
33.1099

>  <JCHEM_ROTATABLE_BOND_COUNT>  (1) 
4

>  <JCHEM_RULE_OF_FIVE>  (1) 
1

>  <ALOGPS_SOLUBILITY>  (1) 
9.78e+01 g/l

>  <JCHEM_TRADITIONAL_IUPAC>  (1) 
tetrahydrofolic acid

>  <JCHEM_VEBER_RULE>  (1) 
0

>  <DRUGBANK_ID>  (1) 
DB00130

>  <SECONDARY_ACCESSION_NUMBERS>  (1) 
NUTR00026

>  <DRUG_GROUPS>  (1) 
approved; investigational; nutraceutical

>  <GENERIC_NAME>  (1) 
L-Glutamine

>  <SYNONYMS>  (1) 
(2S)-2-amino-4-carbamoylbutanoic acid; (2S)-2,5-diamino-5-oxopentanoic acid; (S)-2,5-diamino-5-oxopentanoic acid; Glutamic acid 5-amide; Glutamic acid amide; Glutamina; Glutamine; L-(+)-glutamine; L-2-aminoglutaramic acid; L-glutamic acid γ-amide; L-Glutamin; L-Glutamine; L-Glutaminsäure-5-amid; Levoglutamide; Q

>  <PRODUCTS>  (1) 
Endari; L-Glutamine; NutreStore

>  <INTERNATIONAL_BRANDS>  (1) 
Earthlink Science Glutamine Chews Chocolate; Glutamine Express; Glutamine Fuel Mega; Glutamine Fuel Powder ; L-Glutamine Power

>  <SALTS>  (1) 
Glutamine sodium

$$$$
