
     RDKit          2D

  6  3  0  0  0  0  0  0  0  0999 V2000
    1.6500    0.0000    0.0000 C   0  0  0  0  0  0  0  0  0  0  0  0
    2.0625    0.7145    0.0000 O   0  0  0  0  0  0  0  0  0  0  0  0
    2.0625   -0.7145    0.0000 O   0  0  0  0  0  0  0  0  0  0  0  0
    0.8250    0.0000    0.0000 O   0  0  0  0  0  0  0  0  0  0  0  0
    2.4750   -1.4289    0.0000 Li  0  0  0  0  0 15  0  0  0  0  0  0
    0.0000    0.0000    0.0000 Li  0  0  0  0  0 15  0  0  0  0  0  0
  2  1  2  0
  3  1  1  0
  4  1  1  0
M  CHG  4   3  -1   4  -1   5   1   6   1
M  END
>  <DATABASE_ID>  (1) 
DB14509

>  <DATABASE_NAME>  (1) 
drugbank

>  <SMILES>  (1) 
[Li+].[Li+].[O-]C([O-])=O

>  <INCHI_IDENTIFIER>  (1) 
InChI=1S/CH2O3.2Li/c2-1(3)4;;/h(H2,2,3,4);;/q;2*+1/p-2

>  <INCHI_KEY>  (1) 
XGZVUEUWXADBQD-UHFFFAOYSA-L

>  <FORMULA>  (1) 
CLi2O3

>  <MOLECULAR_WEIGHT>  (1) 
73.89

>  <EXACT_MASS>  (1) 
74.01675074

>  <JCHEM_ACCEPTOR_COUNT>  (1) 
3

>  <JCHEM_ATOM_COUNT>  (1) 
6

>  <JCHEM_AVERAGE_POLARIZABILITY>  (1) 
3.5154552300033055

>  <JCHEM_BIOAVAILABILITY>  (1) 
1

>  <JCHEM_DONOR_COUNT>  (1) 
0

>  <JCHEM_FORMAL_CHARGE>  (1) 
0

>  <JCHEM_GHOSE_FILTER>  (1) 
0

>  <JCHEM_IUPAC>  (1) 
dilithium(1+) carbonate

>  <ALOGPS_LOGP>  (1) 
-0.28

>  <JCHEM_LOGP>  (1) 
0.25005136566666664

>  <ALOGPS_LOGS>  (1) 
0.94

>  <JCHEM_MDDR_LIKE_RULE>  (1) 
0

>  <JCHEM_NUMBER_OF_RINGS>  (1) 
0

>  <JCHEM_PHYSIOLOGICAL_CHARGE>  (1) 
-1

>  <JCHEM_PKA>  (1) 
10.638414228618222

>  <JCHEM_PKA_STRONGEST_ACIDIC>  (1) 
6.052541895520343

>  <JCHEM_POLAR_SURFACE_AREA>  (1) 
63.19

>  <JCHEM_REFRACTIVITY>  (1) 
31.172400000000003

>  <JCHEM_ROTATABLE_BOND_COUNT>  (1) 
0

>  <JCHEM_RULE_OF_FIVE>  (1) 
1

>  <ALOGPS_SOLUBILITY>  (1) 
6.44e+02 g/l

>  <JCHEM_TRADITIONAL_IUPAC>  (1) 
lithium carbonate

>  <JCHEM_VEBER_RULE>  (1) 
0

>  <DRUGBANK_ID>  (1) 
DB14509

>  <SECONDARY_ACCESSION_NUMBERS>  (1) 
DBSALT001075

>  <DRUG_GROUPS>  (1) 
approved; investigational

>  <GENERIC_NAME>  (1) 
Lithium carbonate

>  <SYNONYMS>  (1) 
Carbonic acid, dilithium salt; Dilithium carbonate; Lithii carbonas; Lithium carbonate; Lithiumcarbonate; Lithonate

>  <PRODUCTS>  (1) 
Apo-lithium Carbonate; Carbolith; Dom-lithium Carbonate; Duralith Tab 300mg; Eskalith; Eskalith CR; Euro Lithium; Lithane; Lithium; Lithium Carbonate; Lithium Carbonate ER; Lithium Carbonate Lithium Carbonate; Lithium carbonate; Lithizine Cap 150mg; Lithizine Cap 300mg; Lithmax; Lithobid; PHL-lithium Carbonate; PMS-lithium Carbonate - Cap 150mg; PMS-lithium Carbonate - Cap 300mg; PMS-lithium Carbonate - Cap 600mg; Pal-lithium Carbonate

>  <INTERNATIONAL_BRANDS>  (1) 
LithoTab

$$$$
