
     RDKit          2D

 19 16  0  0  1  0  0  0  0  0999 V2000
   -1.4289    0.2475    0.0000 C   0  0  0  0  0  0  0  0  0  0  0  0
   -0.7145   -0.1650    0.0000 C   0  0  0  0  0  0  0  0  0  0  0  0
   -0.0000    0.2475    0.0000 C   0  0  0  0  0  0  0  0  0  0  0  0
    0.7145   -0.1650    0.0000 C   0  0  0  0  0  0  0  0  0  0  0  0
    0.7145   -0.9900    0.0000 O   0  0  0  0  0  0  0  0  0  0  0  0
    1.4289    0.2475    0.0000 O   0  0  0  0  0  0  0  0  0  0  0  0
   -0.0000    1.0725    0.0000 O   0  0  0  0  0  0  0  0  0  0  0  0
   -0.7145   -0.9900    0.0000 O   0  0  0  0  0  0  0  0  0  0  0  0
   -2.1434   -0.1650    0.0000 O   0  0  0  0  0  0  0  0  0  0  0  0
    4.7436    0.3208    0.0000 C   0  0  0  0  0  0  0  0  0  0  0  0
    5.4581   -0.0917    0.0000 C   0  0  0  0  0  0  0  0  0  0  0  0
    6.1725    0.3208    0.0000 C   0  0  0  0  0  0  0  0  0  0  0  0
    6.8870   -0.0917    0.0000 C   0  0  0  0  0  0  0  0  0  0  0  0
    7.6015    0.3208    0.0000 O   0  0  0  0  0  0  0  0  0  0  0  0
    6.8870   -0.9167    0.0000 O   0  0  0  0  0  0  0  0  0  0  0  0
    6.1725    1.1458    0.0000 O   0  0  0  0  0  0  0  0  0  0  0  0
    5.4581   -0.9167    0.0000 O   0  0  0  0  0  0  0  0  0  0  0  0
    4.0291   -0.0917    0.0000 O   0  0  0  0  0  0  0  0  0  0  0  0
    2.1434    0.6600    0.0000 Ca  0  0  0  0  0 15  0  0  0  0  0  0
  1  2  1  0
  2  3  1  0
  3  4  1  0
  4  5  2  0
  4  6  1  0
  3  7  1  1
  2  8  1  1
  1  9  1  0
 10 11  1  0
 11 12  1  0
 12 13  1  0
 13 14  2  0
 13 15  1  0
 12 16  1  1
 11 17  1  1
 10 18  1  0
M  CHG  3   6  -1  15  -1  19   2
M  END
>  <DATABASE_ID>  (1) 
DB11168

>  <DATABASE_NAME>  (1) 
drugbank

>  <SMILES>  (1) 
[Ca++].OC[C@H](O)[C@@H](O)C([O-])=O.OC[C@H](O)[C@@H](O)C([O-])=O

>  <INCHI_IDENTIFIER>  (1) 
InChI=1S/2C4H8O5.Ca/c2*5-1-2(6)3(7)4(8)9;/h2*2-3,5-7H,1H2,(H,8,9);/q;;+2/p-2/t2*2-,3+;/m00./s1

>  <INCHI_KEY>  (1) 
ZJXGOFZGZFVRHK-BALCVSAKSA-L

>  <FORMULA>  (1) 
C8H14CaO10

>  <MOLECULAR_WEIGHT>  (1) 
310.268

>  <EXACT_MASS>  (1) 
310.0212876

>  <JCHEM_ACCEPTOR_COUNT>  (1) 
5

>  <JCHEM_ATOM_COUNT>  (1) 
33

>  <JCHEM_AVERAGE_POLARIZABILITY>  (1) 
11.1750502065717

>  <JCHEM_BIOAVAILABILITY>  (1) 
1

>  <JCHEM_DONOR_COUNT>  (1) 
3

>  <JCHEM_FORMAL_CHARGE>  (1) 
0

>  <JCHEM_GHOSE_FILTER>  (1) 
0

>  <JCHEM_IUPAC>  (1) 
calcium bis((2R,3S)-2,3,4-trihydroxybutanoate)

>  <ALOGPS_LOGP>  (1) 
-1.69

>  <JCHEM_LOGP>  (1) 
-2.149074426666667

>  <ALOGPS_LOGS>  (1) 
-0.56

>  <JCHEM_MDDR_LIKE_RULE>  (1) 
0

>  <JCHEM_NUMBER_OF_RINGS>  (1) 
0

>  <JCHEM_PHYSIOLOGICAL_CHARGE>  (1) 
-1

>  <JCHEM_PKA>  (1) 
13.025178139889814

>  <JCHEM_PKA_STRONGEST_ACIDIC>  (1) 
3.4007287139451505

>  <JCHEM_PKA_STRONGEST_BASIC>  (1) 
-2.981778620620938

>  <JCHEM_POLAR_SURFACE_AREA>  (1) 
100.82000000000001

>  <JCHEM_REFRACTIVITY>  (1) 
37.183099999999996

>  <JCHEM_ROTATABLE_BOND_COUNT>  (1) 
6

>  <JCHEM_RULE_OF_FIVE>  (1) 
1

>  <ALOGPS_SOLUBILITY>  (1) 
8.61e+01 g/l

>  <JCHEM_TRADITIONAL_IUPAC>  (1) 
calcium bis(L-threonate)

>  <JCHEM_VEBER_RULE>  (1) 
0

>  <DRUGBANK_ID>  (1) 
DB11168

>  <DRUG_GROUPS>  (1) 
approved; withdrawn

>  <GENERIC_NAME>  (1) 
Calcium threonate

>  <SYNONYMS>  (1) 
Calcium L-threonate; Calcium threonate; Threonine, calcium salt

>  <PRODUCTS>  (1) 
Corvite 150; Corvite FE; Ferrex 150 Forte Plus; Folcaps Care One; Folcaps Omega-3; Iron Aspartate Glycinate and Polysaccharide Complex, Ascorbic Calcium, Vitamin B12, Folic Acid, Calcium Threonate and Succinic Acid; Iron Aspartate, Glycinate, Ascorbic Calcium, Vitamin B12, Calcium Threonate and Succinic Acid; Iron Fumarate and Aspartate, Glycinate, Ascorbic Calcium, Vitamin B12, Folic Acid, Calcium Threonate and Succinic Acid; OB Complete 400; OB Complete DHA; Se-Care Chewable; Se-Care Conceive; Se-Vate 21/7; Soin Solaire Complete SPF30; UltimateCare ONE NF

$$$$
