
     RDKit          2D

 19 21  0  0  0  0  0  0  0  0999 V2000
    0.0000    0.0000    0.0000 C   0  0  0  0  0  0  0  0  0  0  0  0
   -0.7145    1.2375    0.0000 C   0  0  0  0  0  0  0  0  0  0  0  0
   -0.7145    2.0625    0.0000 C   0  0  0  0  0  0  0  0  0  0  0  0
    0.0000    3.3000    0.0000 C   0  0  0  0  0  0  0  0  0  0  0  0
    1.4289    3.3000    0.0000 C   0  0  0  0  0  0  0  0  0  0  0  0
    1.4289    0.8250    0.0000 C   0  0  0  0  0  0  0  0  0  0  0  0
    0.0000    0.8250    0.0000 C   0  0  0  0  0  0  0  0  0  0  0  0
    0.0000    2.4750    0.0000 C   0  0  0  0  0  0  0  0  0  0  0  0
    0.7145    3.7125    0.0000 C   0  0  0  0  0  0  0  0  0  0  0  0
    1.4289    2.4750    0.0000 C   0  0  0  0  0  0  0  0  0  0  0  0
    2.1434    1.2375    0.0000 C   0  0  0  0  0  0  0  0  0  0  0  0
    0.7145    2.0625    0.0000 C   0  0  0  0  0  0  0  0  0  0  0  0
    2.1434    2.0625    0.0000 C   0  0  0  0  0  0  0  0  0  0  0  0
    2.8579    0.8250    0.0000 C   0  0  0  0  0  0  0  0  0  0  0  0
    0.7145    4.5375    0.0000 F   0  0  0  0  0  0  0  0  0  0  0  0
    0.7145    1.2375    0.0000 N   0  0  0  0  0  0  0  0  0  0  0  0
    2.8579    2.4750    0.0000 O   0  0  0  0  0  0  0  0  0  0  0  0
    3.5724    1.2375    0.0000 O   0  0  0  0  0  0  0  0  0  0  0  0
    2.8579    0.0000    0.0000 O   0  0  0  0  0  0  0  0  0  0  0  0
  3  2  1  0
  7  1  1  0
  7  2  1  0
  8  3  1  0
  8  4  1  0
  9  4  2  0
  9  5  1  0
 10  5  2  0
 11  6  2  0
 12  8  2  0
 12 10  1  0
 13 10  1  0
 13 11  1  0
 14 11  1  0
 15  9  1  0
 16  6  1  0
 16  7  1  0
 16 12  1  0
 17 13  2  0
 18 14  2  0
 19 14  1  0
M  END
>  <DATABASE_ID>  (1) 
DB08972

>  <DATABASE_NAME>  (1) 
drugbank

>  <SMILES>  (1) 
CC1CCC2=CC(F)=CC3=C2N1C=C(C(O)=O)C3=O

>  <INCHI_IDENTIFIER>  (1) 
InChI=1S/C14H12FNO3/c1-7-2-3-8-4-9(15)5-10-12(8)16(7)6-11(13(10)17)14(18)19/h4-7H,2-3H2,1H3,(H,18,19)

>  <INCHI_KEY>  (1) 
DPSPPJIUMHPXMA-UHFFFAOYSA-N

>  <FORMULA>  (1) 
C14H12FNO3

>  <MOLECULAR_WEIGHT>  (1) 
261.2484

>  <EXACT_MASS>  (1) 
261.08012146

>  <JCHEM_ACCEPTOR_COUNT>  (1) 
4

>  <JCHEM_ATOM_COUNT>  (1) 
31

>  <JCHEM_AVERAGE_NEUTRAL_MICROSPECIES_CHARGE>  (1) 
-0.9389917718134285

>  <JCHEM_AVERAGE_POLARIZABILITY>  (1) 
25.246669797959065

>  <JCHEM_BIOAVAILABILITY>  (1) 
1

>  <JCHEM_DONOR_COUNT>  (1) 
1

>  <JCHEM_FORMAL_CHARGE>  (1) 
0

>  <JCHEM_GHOSE_FILTER>  (1) 
1

>  <JCHEM_IUPAC>  (1) 
7-fluoro-12-methyl-4-oxo-1-azatricyclo[7.3.1.0^{5,13}]trideca-2,5(13),6,8-tetraene-3-carboxylic acid

>  <ALOGPS_LOGP>  (1) 
1.62

>  <JCHEM_LOGP>  (1) 
2.416839571

>  <ALOGPS_LOGS>  (1) 
-2.32

>  <JCHEM_MDDR_LIKE_RULE>  (1) 
0

>  <JCHEM_NEUTRAL_CHARGE>  (1) 
-1

>  <JCHEM_NUMBER_OF_RINGS>  (1) 
3

>  <JCHEM_PHYSIOLOGICAL_CHARGE>  (1) 
-1

>  <JCHEM_PKA_STRONGEST_ACIDIC>  (1) 
5.812726625774808

>  <JCHEM_PKA_STRONGEST_BASIC>  (1) 
-4.310946344022433

>  <JCHEM_POLAR_SURFACE_AREA>  (1) 
57.61

>  <JCHEM_REFRACTIVITY>  (1) 
67.8736

>  <JCHEM_ROTATABLE_BOND_COUNT>  (1) 
1

>  <JCHEM_RULE_OF_FIVE>  (1) 
1

>  <ALOGPS_SOLUBILITY>  (1) 
1.24e+00 g/l

>  <JCHEM_TRADITIONAL_IUPAC>  (1) 
tetrahydrofolic acid

>  <JCHEM_VEBER_RULE>  (1) 
0

>  <DRUGBANK_ID>  (1) 
DB08972

>  <DRUG_GROUPS>  (1) 
approved; withdrawn

>  <GENERIC_NAME>  (1) 
Flumequine

>  <SYNONYMS>  (1) 
Flumequine

$$$$
