
     RDKit          2D

  1  0  0  0  0  0  0  0  0  0999 V2000
    0.0000    0.0000    0.0000 Xe  0  0  0  0  0 15  0  0  0  0  0  0
M  ISO  1   1 129
M  END
>  <DATABASE_ID>  (1) 
DB17386

>  <DATABASE_NAME>  (1) 
drugbank

>  <SMILES>  (1) 
[129Xe]

>  <INCHI_IDENTIFIER>  (1) 
InChI=1S/Xe/i1-2

>  <INCHI_KEY>  (1) 
FHNFHKCVQCLJFQ-YPZZEJLDSA-N

>  <FORMULA>  (1) 
Xe

>  <MOLECULAR_WEIGHT>  (1) 
128.9048

>  <EXACT_MASS>  (1) 
128.90478086

>  <JCHEM_ACCEPTOR_COUNT>  (1) 
0

>  <JCHEM_ATOM_COUNT>  (1) 
1

>  <JCHEM_AVERAGE_NEUTRAL_MICROSPECIES_CHARGE>  (1) 
0.0

>  <JCHEM_AVERAGE_POLARIZABILITY>  (1) 
1.7784

>  <JCHEM_BIOAVAILABILITY>  (1) 
1

>  <JCHEM_DONOR_COUNT>  (1) 
0

>  <JCHEM_FORMAL_CHARGE>  (1) 
0

>  <JCHEM_GHOSE_FILTER>  (1) 
0

>  <JCHEM_IUPAC>  (1) 
(129Xe)xenon

>  <JCHEM_LOGP>  (1) 
0.0

>  <JCHEM_MDDR_LIKE_RULE>  (1) 
0

>  <JCHEM_NEUTRAL_CHARGE>  (1) 
0

>  <JCHEM_NUMBER_OF_RINGS>  (1) 
0

>  <JCHEM_PHYSIOLOGICAL_CHARGE>  (1) 
0

>  <JCHEM_POLAR_SURFACE_AREA>  (1) 
0.0

>  <JCHEM_REFRACTIVITY>  (1) 
0.0

>  <JCHEM_ROTATABLE_BOND_COUNT>  (1) 
0

>  <JCHEM_RULE_OF_FIVE>  (1) 
1

>  <JCHEM_TRADITIONAL_IUPAC>  (1) 
2-[(2S)-4-[7-(8-chloronaphthalen-1-yl)-2-{[(2S)-1-methylpyrrolidin-2-yl]methoxy}-5H,6H,8H-pyrido[3,4-d]pyrimidin-4-yl]-1-(2-fluoroprop-2-enoyl)piperazin-2-yl]acetonitrile

>  <JCHEM_VEBER_RULE>  (1) 
1

>  <DRUGBANK_ID>  (1) 
DB17386

>  <SECONDARY_ACCESSION_NUMBERS>  (1) 
DB25473

>  <DRUG_GROUPS>  (1) 
approved; investigational

>  <GENERIC_NAME>  (1) 
Xenon Xe-129

>  <SYNONYMS>  (1) 
129Xe; hyperpolarized 129Xe; Xenon xe-129m; Xenon-129m; Xenon, isotope of mass 129; Xenon, isotope of mass 129m(8.88 d); Xenon, xe-129m

>  <PRODUCTS>  (1) 
Xenoview

$$$$
