
     RDKit          2D

 14 14  0  0  0  0  0  0  0  0999 V2000
    1.4289    2.4750    0.0000 C   0  0  0  0  0  0  0  0  0  0  0  0
    0.7145    2.0625    0.0000 C   0  0  0  0  0  0  0  0  0  0  0  0
    0.7145    1.2375    0.0000 N   0  0  0  0  0  0  0  0  0  0  0  0
    1.4289    0.8250    0.0000 C   0  0  0  0  0  0  0  0  0  0  0  0
    2.1434    1.2375    0.0000 O   0  0  0  0  0  0  0  0  0  0  0  0
    1.4289   -0.0000    0.0000 C   0  0  0  0  0  0  0  0  0  0  0  0
    0.7145   -0.4125    0.0000 C   0  0  0  0  0  0  0  0  0  0  0  0
    0.7145   -1.2375    0.0000 N   0  0  0  0  0  0  0  0  0  0  0  0
    0.0000    0.0000    0.0000 N   0  0  0  0  0  0  0  0  0  0  0  0
   -0.7145   -0.4125    0.0000 C   0  0  0  0  0  0  0  0  0  0  0  0
   -1.4289    0.0000    0.0000 C   0  0  0  0  0  0  0  0  0  0  0  0
   -2.1434   -0.4125    0.0000 C   0  0  0  0  0  0  0  0  0  0  0  0
    0.0000    0.8250    0.0000 C   0  0  0  0  0  0  0  0  0  0  0  0
   -0.7145    1.2375    0.0000 O   0  0  0  0  0  0  0  0  0  0  0  0
  1  2  1  0
  2  3  1  0
  3  4  1  0
  4  5  2  0
  4  6  1  0
  6  7  2  0
  7  8  1  0
  7  9  1  0
  9 10  1  0
 10 11  1  0
 11 12  2  0
  9 13  1  0
  3 13  1  0
 13 14  2  0
M  END
>  <DATABASE_ID>  (1) 
DB19365

>  <DATABASE_NAME>  (1) 
drugbank

>  <SMILES>  (1) 
CCN1C(=O)C=C(N)N(CC=C)C1=O

>  <INCHI_IDENTIFIER>  (1) 
InChI=1S/C9H13N3O2/c1-3-5-12-7(10)6-8(13)11(4-2)9(12)14/h3,6H,1,4-5,10H2,2H3

>  <INCHI_KEY>  (1) 
NGXUUAFYUCOICP-UHFFFAOYSA-N

>  <FORMULA>  (1) 
C9H13N3O2

>  <MOLECULAR_WEIGHT>  (1) 
195.222

>  <EXACT_MASS>  (1) 
195.100776671

>  <DRUGBANK_ID>  (1) 
DB19365

>  <DRUG_GROUPS>  (1) 
approved

>  <GENERIC_NAME>  (1) 
Aminometradine

>  <SYNONYMS>  (1) 
1-allyl-6-amino-3-ethyluracil; Aminometradine

$$$$
