
     RDKit          2D

 41 45  0  0  0  0  0  0  0  0999 V2000
   -2.8579    0.0000    0.0000 C   0  0  0  0  0  0  0  0  0  0  0  0
   -2.8579    0.8250    0.0000 C   0  0  0  0  0  0  0  0  0  0  0  0
   -2.1434    1.2375    0.0000 C   0  0  0  0  0  0  0  0  0  0  0  0
   -1.4289    0.8250    0.0000 C   0  0  0  0  0  0  0  0  0  0  0  0
   -1.4289    0.0000    0.0000 C   0  0  0  0  0  0  0  0  0  0  0  0
   -2.1434   -0.4125    0.0000 C   0  0  0  0  0  0  0  0  0  0  0  0
   -0.7145   -0.4125    0.0000 C   0  0  0  0  0  0  0  0  0  0  0  0
   -0.7145   -1.2375    0.0000 O   0  0  0  0  0  0  0  0  0  0  0  0
    0.0000    0.0000    0.0000 C   0  0  0  0  0  0  0  0  0  0  0  0
    0.0000    0.8250    0.0000 C   0  0  0  0  0  0  0  0  0  0  0  0
    0.7145    1.2375    0.0000 C   0  0  0  0  0  0  0  0  0  0  0  0
    1.4289    0.8250    0.0000 C   0  0  0  0  0  0  0  0  0  0  0  0
    1.4289   -0.0000    0.0000 N   0  0  0  0  0  0  0  0  0  0  0  0
    0.7145   -0.4125    0.0000 C   0  0  0  0  0  0  0  0  0  0  0  0
    0.7145   -1.2375    0.0000 C   0  0  0  0  0  0  0  0  0  0  0  0
    1.3819   -1.7224    0.0000 C   0  0  0  0  0  0  0  0  0  0  0  0
    1.1270   -2.5070    0.0000 N   0  0  0  0  0  0  0  0  0  0  0  0
    0.3020   -2.5070    0.0000 N   0  0  0  0  0  0  0  0  0  0  0  0
    0.0470   -1.7224    0.0000 N   0  0  0  0  0  0  0  0  0  0  0  0
    1.6119   -3.1745    0.0000 C   0  0  0  0  0  0  0  0  0  0  0  0
    1.2763   -3.9282    0.0000 C   0  0  0  0  0  0  0  0  0  0  0  0
    1.7613   -4.5956    0.0000 C   0  0  0  0  0  0  0  0  0  0  0  0
    1.4257   -5.3493    0.0000 C   0  0  0  0  0  0  0  0  0  0  0  0
    0.6052   -5.4355    0.0000 C   0  0  0  0  0  0  0  0  0  0  0  0
    0.1203   -4.7681    0.0000 C   0  0  0  0  0  0  0  0  0  0  0  0
    0.4559   -4.0144    0.0000 C   0  0  0  0  0  0  0  0  0  0  0  0
   -0.7002   -4.8543    0.0000 C   0  0  0  0  0  0  0  0  0  0  0  0
   -1.5207   -4.9405    0.0000 F   0  0  0  0  0  0  0  0  0  0  0  0
   -0.7864   -4.0338    0.0000 F   0  0  0  0  0  0  0  0  0  0  0  0
   -0.6139   -5.6748    0.0000 F   0  0  0  0  0  0  0  0  0  0  0  0
    1.9106   -6.0167    0.0000 C   0  0  0  0  0  0  0  0  0  0  0  0
    2.3955   -6.6842    0.0000 F   0  0  0  0  0  0  0  0  0  0  0  0
    1.2432   -6.5016    0.0000 F   0  0  0  0  0  0  0  0  0  0  0  0
    2.5781   -5.5318    0.0000 F   0  0  0  0  0  0  0  0  0  0  0  0
    2.1665   -1.4675    0.0000 C   0  0  0  0  0  0  0  0  0  0  0  0
    2.3381   -0.6605    0.0000 C   0  0  0  0  0  0  0  0  0  0  0  0
    3.1227   -0.4056    0.0000 C   0  0  0  0  0  0  0  0  0  0  0  0
    3.7358   -0.9576    0.0000 N   0  0  0  0  0  0  0  0  0  0  0  0
    3.5642   -1.7646    0.0000 C   0  0  0  0  0  0  0  0  0  0  0  0
    2.7796   -2.0195    0.0000 C   0  0  0  0  0  0  0  0  0  0  0  0
   -0.7145    1.2375    0.0000 Cl  0  0  0  0  0  0  0  0  0  0  0  0
  1  2  2  0
  2  3  1  0
  3  4  2  0
  4  5  1  0
  5  6  2  0
  1  6  1  0
  5  7  1  0
  7  8  2  0
  7  9  1  0
  9 10  2  0
 10 11  1  0
 11 12  2  0
 12 13  1  0
 13 14  2  0
  9 14  1  0
 14 15  1  0
 15 16  2  0
 16 17  1  0
 17 18  1  0
 18 19  2  0
 15 19  1  0
 17 20  1  0
 20 21  1  0
 21 22  2  0
 22 23  1  0
 23 24  2  0
 24 25  1  0
 25 26  2  0
 21 26  1  0
 25 27  1  0
 27 28  1  0
 27 29  1  0
 27 30  1  0
 23 31  1  0
 31 32  1  0
 31 33  1  0
 31 34  1  0
 16 35  1  0
 35 36  2  0
 36 37  1  0
 37 38  2  0
 38 39  1  0
 39 40  2  0
 35 40  1  0
  4 41  1  0
M  END
>  <DATABASE_ID>  (1) 
DB12580

>  <DATABASE_NAME>  (1) 
drugbank

>  <SMILES>  (1) 
FC(F)(F)C1=CC(=CC(CN2N=NC(=C2C2=CC=NC=C2)C2=NC=CC=C2C(=O)C2=CC=CC=C2Cl)=C1)C(F)(F)F

>  <INCHI_IDENTIFIER>  (1) 
InChI=1S/C28H16ClF6N5O/c29-22-6-2-1-4-20(22)26(41)21-5-3-9-37-23(21)24-25(17-7-10-36-11-8-17)40(39-38-24)15-16-12-18(27(30,31)32)14-19(13-16)28(33,34)35/h1-14H,15H2

>  <INCHI_KEY>  (1) 
CAVRKWRKTNINFF-UHFFFAOYSA-N

>  <FORMULA>  (1) 
C28H16ClF6N5O

>  <MOLECULAR_WEIGHT>  (1) 
587.91

>  <EXACT_MASS>  (1) 
587.0947568

>  <JCHEM_ACCEPTOR_COUNT>  (1) 
5

>  <JCHEM_ATOM_COUNT>  (1) 
57

>  <JCHEM_AVERAGE_POLARIZABILITY>  (1) 
49.0820249924611

>  <JCHEM_BIOAVAILABILITY>  (1) 
0

>  <JCHEM_DONOR_COUNT>  (1) 
0

>  <JCHEM_FORMAL_CHARGE>  (1) 
0

>  <JCHEM_GHOSE_FILTER>  (1) 
0

>  <JCHEM_IUPAC>  (1) 
2-(1-{[3,5-bis(trifluoromethyl)phenyl]methyl}-5-(pyridin-4-yl)-1H-1,2,3-triazol-4-yl)-3-(2-chlorobenzoyl)pyridine

>  <ALOGPS_LOGP>  (1) 
5.03

>  <JCHEM_LOGP>  (1) 
7.114605471666668

>  <ALOGPS_LOGS>  (1) 
-5.85

>  <JCHEM_MDDR_LIKE_RULE>  (1) 
1

>  <JCHEM_NUMBER_OF_RINGS>  (1) 
5

>  <JCHEM_PHYSIOLOGICAL_CHARGE>  (1) 
0

>  <JCHEM_PKA_STRONGEST_BASIC>  (1) 
4.2050626661643555

>  <JCHEM_POLAR_SURFACE_AREA>  (1) 
73.56

>  <JCHEM_REFRACTIVITY>  (1) 
150.3508

>  <JCHEM_ROTATABLE_BOND_COUNT>  (1) 
8

>  <JCHEM_RULE_OF_FIVE>  (1) 
0

>  <ALOGPS_SOLUBILITY>  (1) 
8.24e-04 g/l

>  <JCHEM_TRADITIONAL_IUPAC>  (1) 
2-(1-{[3,5-bis(trifluoromethyl)phenyl]methyl}-5-(pyridin-4-yl)-1,2,3-triazol-4-yl)-3-(2-chlorobenzoyl)pyridine

>  <JCHEM_VEBER_RULE>  (1) 
0

>  <DRUGBANK_ID>  (1) 
DB12580

>  <DRUG_GROUPS>  (1) 
approved; investigational

>  <GENERIC_NAME>  (1) 
Tradipitant

>  <SYNONYMS>  (1) 
(2-(1-(3,5-BIS(TRIFLUOROMETHYL)BENZYL)-5-PYRIDIN-4-YL-1H-1,2,3-TRIAZOL-4-YL)PYRIDIN-3-YL)(2-CHLOROPHENYL)METHANONE; METHANONE, (2-(1-((3,5-BIS(TRIFLUOROMETHYL)PHENYL)METHYL)-5-(4-PYRIDINYL)-1H-1,2,3-TRIAZOL-4-YL)-3-PYRIDINYL)(2-CHLOROPHENYL)-; Tradipitant

>  <PRODUCTS>  (1) 
Nereus

$$$$
