1628
     RDKit          2D

 24 26  0  0  0  0  0  0  0  0999 V2000
    6.6513   -2.8875    0.0000 Cl  0  0  0  0  0  0  0  0  0  0  0  0
    5.2223    2.0625    0.0000 S   0  0  0  0  0  0  0  0  0  0  0  0
    4.3973    2.0625    0.0000 O   0  0  0  0  0  0  0  0  0  0  0  0
    6.0473    2.0625    0.0000 O   0  0  0  0  0  0  0  0  0  0  0  0
    4.5079   -2.4750    0.0000 N   0  0  0  0  0  0  0  0  0  0  0  0
    3.0790    0.0000    0.0000 N   0  0  0  0  0  0  0  0  0  0  0  0
    5.2223   -0.4125    0.0000 C   0  0  0  0  0  0  0  0  0  0  0  0
    5.2223   -1.2375    0.0000 C   0  0  0  0  0  0  0  0  0  0  0  0
    5.2223    1.2375    0.0000 C   0  0  0  0  0  0  0  0  0  0  0  0
    4.5079   -1.6500    0.0000 C   0  0  0  0  0  0  0  0  0  0  0  0
    4.5079    0.0000    0.0000 C   0  0  0  0  0  0  0  0  0  0  0  0
    5.9369    0.0000    0.0000 C   0  0  0  0  0  0  0  0  0  0  0  0
    4.5079    0.8250    0.0000 C   0  0  0  0  0  0  0  0  0  0  0  0
    5.9369    0.8250    0.0000 C   0  0  0  0  0  0  0  0  0  0  0  0
    3.7934   -1.2375    0.0000 C   0  0  0  0  0  0  0  0  0  0  0  0
    5.9369   -1.6500    0.0000 C   0  0  0  0  0  0  0  0  0  0  0  0
    5.2223    2.8875    0.0000 C   0  0  0  0  0  0  0  0  0  0  0  0
    3.0790   -1.6500    0.0000 C   0  0  0  0  0  0  0  0  0  0  0  0
    5.9369   -2.4750    0.0000 C   0  0  0  0  0  0  0  0  0  0  0  0
    3.7934   -0.4125    0.0000 C   0  0  0  0  0  0  0  0  0  0  0  0
    5.2223   -2.8875    0.0000 C   0  0  0  0  0  0  0  0  0  0  0  0
    2.3644   -1.2375    0.0000 C   0  0  0  0  0  0  0  0  0  0  0  0
    2.3644   -0.4125    0.0000 C   0  0  0  0  0  0  0  0  0  0  0  0
    1.6500    0.0000    0.0000 C   0  0  0  0  0  0  0  0  0  0  0  0
  1 19  1  0
  2  3  2  0
  2  4  2  0
  2  9  1  0
  2 17  1  0
  5 10  2  0
  5 21  1  0
  6 20  2  0
  6 23  1  0
  7  8  1  0
  7 11  2  0
  7 12  1  0
  8 10  1  0
  8 16  2  0
  9 13  2  0
  9 14  1  0
 10 15  1  0
 11 13  1  0
 12 14  2  0
 15 18  2  0
 15 20  1  0
 16 19  1  0
 18 22  1  0
 19 21  2  0
 22 23  2  0
 23 24  1  0
M  END
>  <DATABASE_ID>  (1) 
DB01628

>  <DATABASE_NAME>  (1) 
drugbank

>  <SMILES>  (1) 
CC1=NC=C(C=C1)C1=C(C=C(Cl)C=N1)C1=CC=C(C=C1)S(C)(=O)=O

>  <INCHI_IDENTIFIER>  (1) 
InChI=1S/C18H15ClN2O2S/c1-12-3-4-14(10-20-12)18-17(9-15(19)11-21-18)13-5-7-16(8-6-13)24(2,22)23/h3-11H,1-2H3

>  <INCHI_KEY>  (1) 
MNJVRJDLRVPLFE-UHFFFAOYSA-N

>  <FORMULA>  (1) 
C18H15ClN2O2S

>  <MOLECULAR_WEIGHT>  (1) 
358.842

>  <EXACT_MASS>  (1) 
358.054276131

>  <JCHEM_ACCEPTOR_COUNT>  (1) 
4

>  <JCHEM_ATOM_COUNT>  (1) 
39

>  <JCHEM_AVERAGE_NEUTRAL_MICROSPECIES_CHARGE>  (1) 
0.00903988110113115

>  <JCHEM_AVERAGE_POLARIZABILITY>  (1) 
36.416912303869715

>  <JCHEM_BIOAVAILABILITY>  (1) 
1

>  <JCHEM_DONOR_COUNT>  (1) 
0

>  <JCHEM_FORMAL_CHARGE>  (1) 
0

>  <JCHEM_GHOSE_FILTER>  (1) 
1

>  <JCHEM_IUPAC>  (1) 
5-chloro-3-(4-methanesulfonylphenyl)-6'-methyl-2,3'-bipyridine

>  <ALOGPS_LOGP>  (1) 
3.70

>  <JCHEM_LOGP>  (1) 
2.7939253993333337

>  <ALOGPS_LOGS>  (1) 
-5.04

>  <JCHEM_MDDR_LIKE_RULE>  (1) 
0

>  <JCHEM_NEUTRAL_CHARGE>  (1) 
0

>  <JCHEM_NUMBER_OF_RINGS>  (1) 
3

>  <JCHEM_PHYSIOLOGICAL_CHARGE>  (1) 
0

>  <JCHEM_PKA_STRONGEST_ACIDIC>  (1) 
16.193101752759226

>  <JCHEM_PKA_STRONGEST_BASIC>  (1) 
4.960388315110995

>  <JCHEM_POLAR_SURFACE_AREA>  (1) 
59.92

>  <JCHEM_REFRACTIVITY>  (1) 
95.04450000000001

>  <JCHEM_ROTATABLE_BOND_COUNT>  (1) 
3

>  <JCHEM_RULE_OF_FIVE>  (1) 
1

>  <ALOGPS_SOLUBILITY>  (1) 
3.28e-03 g/l

>  <JCHEM_TRADITIONAL_IUPAC>  (1) 
biotin

>  <JCHEM_VEBER_RULE>  (1) 
0

>  <DRUGBANK_ID>  (1) 
DB01628

>  <SECONDARY_ACCESSION_NUMBERS>  (1) 
DB07166

>  <DRUG_GROUPS>  (1) 
approved; investigational; withdrawn

>  <GENERIC_NAME>  (1) 
Etoricoxib

>  <SYNONYMS>  (1) 
5-chloro-2-(6-methylpyridin-3-yl)-3-(4-(methylsulfonyl)phenyl)pyridine; 5-Chloro-3-(4-methanesulfonyl-phenyl)-6'-methyl-[2,3']bipyridinyl; 5-chloro-6'-methyl-3-(p-(methylsulfonyl)phenyl)-2,3'-bipyridine; étoricoxib; Etoricoxib; Etoricoxibum

>  <INTERNATIONAL_BRANDS>  (1) 
Algix; Arcoxia; Coxyveen; Etorix; Nucoxia; Tauxib

>  <SALTS>  (1) 
Etoricoxib hydrochloride

$$$$
