1230
     RDKit          2D

 13 14  0  0  1  0  0  0  0  0999 V2000
    2.3888    0.5203    0.0000 O   0  0  0  0  0  0  0  0  0  0  0  0
    4.5083    0.2653    0.0000 O   0  0  0  0  0  0  0  0  0  0  0  0
    3.4687    1.3049    0.0000 N   0  0  0  0  0  0  0  0  0  0  0  0
    2.1587    1.9724    0.0000 N   0  0  0  0  0  0  0  0  0  0  0  0
    3.0562    0.0354    0.0000 C   0  0  0  0  0  0  0  0  0  0  0  0
    3.0562   -0.7896    0.0000 C   0  0  0  0  0  0  0  0  0  0  0  0
    3.7236    0.5203    0.0000 C   0  0  0  0  0  0  0  0  0  0  0  0
    3.7707   -1.2021    0.0000 C   0  0  0  0  0  0  0  0  0  0  0  0
    2.3417   -1.2021    0.0000 C   0  0  0  0  0  0  0  0  0  0  0  0
    2.6437    1.3049    0.0000 C   0  0  0  0  0  0  0  0  0  0  0  0
    3.7707   -2.0272    0.0000 C   0  0  0  0  0  0  0  0  0  0  0  0
    2.3417   -2.0272    0.0000 C   0  0  0  0  0  0  0  0  0  0  0  0
    3.0562   -2.4397    0.0000 C   0  0  0  0  0  0  0  0  0  0  0  0
  1  5  1  0
  1 10  1  0
  2  7  2  0
  3  7  1  0
  3 10  2  0
  4 10  1  0
  5  6  1  0
  5  7  1  0
  6  8  2  0
  6  9  1  0
  8 11  1  0
  9 12  2  0
 11 13  2  0
 12 13  1  0
M  END
>  <DATABASE_ID>  (1) 
DB01230

>  <DATABASE_NAME>  (1) 
drugbank

>  <SMILES>  (1) 
NC1=NC(=O)C(O1)C1=CC=CC=C1

>  <INCHI_IDENTIFIER>  (1) 
InChI=1S/C9H8N2O2/c10-9-11-8(12)7(13-9)6-4-2-1-3-5-6/h1-5,7H,(H2,10,11,12)

>  <INCHI_KEY>  (1) 
NRNCYVBFPDDJNE-UHFFFAOYSA-N

>  <FORMULA>  (1) 
C9H8N2O2

>  <MOLECULAR_WEIGHT>  (1) 
176.172

>  <EXACT_MASS>  (1) 
176.05857751

>  <JCHEM_ACCEPTOR_COUNT>  (1) 
4

>  <JCHEM_ATOM_COUNT>  (1) 
21

>  <JCHEM_AVERAGE_NEUTRAL_MICROSPECIES_CHARGE>  (1) 
1.5616588083433478e-08

>  <JCHEM_AVERAGE_POLARIZABILITY>  (1) 
17.040561195958638

>  <JCHEM_BIOAVAILABILITY>  (1) 
1

>  <JCHEM_DONOR_COUNT>  (1) 
1

>  <JCHEM_FORMAL_CHARGE>  (1) 
0

>  <JCHEM_GHOSE_FILTER>  (1) 
1

>  <JCHEM_IUPAC>  (1) 
2-amino-5-phenyl-4,5-dihydro-1,3-oxazol-4-one

>  <ALOGPS_LOGP>  (1) 
0.52

>  <JCHEM_LOGP>  (1) 
0.800027732

>  <ALOGPS_LOGS>  (1) 
-2.26

>  <JCHEM_MDDR_LIKE_RULE>  (1) 
0

>  <JCHEM_NEUTRAL_CHARGE>  (1) 
0

>  <JCHEM_NUMBER_OF_RINGS>  (1) 
2

>  <JCHEM_PHYSIOLOGICAL_CHARGE>  (1) 
0

>  <JCHEM_PKA>  (1) 
19.01805363104564

>  <JCHEM_PKA_STRONGEST_ACIDIC>  (1) 
15.333685829721324

>  <JCHEM_PKA_STRONGEST_BASIC>  (1) 
-0.6934448988198831

>  <JCHEM_POLAR_SURFACE_AREA>  (1) 
64.67999999999999

>  <JCHEM_REFRACTIVITY>  (1) 
45.70230000000001

>  <JCHEM_ROTATABLE_BOND_COUNT>  (1) 
1

>  <JCHEM_RULE_OF_FIVE>  (1) 
1

>  <ALOGPS_SOLUBILITY>  (1) 
9.79e-01 g/l

>  <JCHEM_TRADITIONAL_IUPAC>  (1) 
biotin

>  <JCHEM_VEBER_RULE>  (1) 
0

>  <DRUGBANK_ID>  (1) 
DB01230

>  <SECONDARY_ACCESSION_NUMBERS>  (1) 
APRD01169

>  <DRUG_GROUPS>  (1) 
approved; illicit; withdrawn

>  <GENERIC_NAME>  (1) 
Pemoline

>  <SYNONYMS>  (1) 
pemolina; Pemoline

>  <PRODUCTS>  (1) 
Cylert

>  <INTERNATIONAL_BRANDS>  (1) 
Betanamin; Ceractiv; Tradon

$$$$
