
     RDKit          2D

 51 56  0  0  1  0  0  0  0  0999 V2000
    4.3128    0.8839    0.0000 H   0  0  0  0  0  0  0  0  0  0  0  0
    5.1234    1.0376    0.0000 C   0  0  0  0  0  0  0  0  0  0  0  0
    5.9339    1.1913    0.0000 C   0  0  0  0  0  0  0  0  0  0  0  0
    6.4723    0.5662    0.0000 C   0  0  0  0  0  0  0  0  0  0  0  0
    7.2829    0.7200    0.0000 O   0  0  0  0  0  0  0  0  0  0  0  0
    7.8213    0.0949    0.0000 C   0  0  0  0  0  0  0  0  0  0  0  0
    7.5491   -0.6840    0.0000 O   0  0  0  0  0  0  0  0  0  0  0  0
    8.6318    0.2486    0.0000 C   0  0  0  0  0  0  0  0  0  0  0  0
    8.9040    1.0274    0.0000 C   0  0  0  0  0  0  0  0  0  0  0  0
    9.7145    1.1811    0.0000 C   0  0  0  0  0  0  0  0  0  0  0  0
    9.9867    1.9600    0.0000 O   0  0  0  0  0  0  0  0  0  0  0  0
   10.7972    2.1137    0.0000 C   0  0  0  0  0  0  0  0  0  0  0  0
   10.2529    0.5560    0.0000 C   0  0  0  0  0  0  0  0  0  0  0  0
   11.0635    0.7098    0.0000 O   0  0  0  0  0  0  0  0  0  0  0  0
   11.6019    0.0847    0.0000 C   0  0  0  0  0  0  0  0  0  0  0  0
   11.3297   -0.6941    0.0000 O   0  0  0  0  0  0  0  0  0  0  0  0
   12.4124    0.2384    0.0000 O   0  0  0  0  0  0  0  0  0  0  0  0
   12.9508   -0.3867    0.0000 C   0  0  0  0  0  0  0  0  0  0  0  0
   13.7614   -0.2330    0.0000 C   0  0  0  0  0  0  0  0  0  0  0  0
    9.9808   -0.2228    0.0000 C   0  0  0  0  0  0  0  0  0  0  0  0
   10.5192   -0.8479    0.0000 O   0  0  0  0  0  0  0  0  0  0  0  0
   10.2470   -1.6267    0.0000 C   0  0  0  0  0  0  0  0  0  0  0  0
    9.1702   -0.3765    0.0000 C   0  0  0  0  0  0  0  0  0  0  0  0
    6.2002   -0.2126    0.0000 C   0  0  0  0  0  0  0  0  0  0  0  0
    6.7386   -0.8377    0.0000 O   0  0  0  0  0  0  0  0  0  0  0  0
    6.4664   -1.6165    0.0000 C   0  0  0  0  0  0  0  0  0  0  0  0
    5.3896   -0.3663    0.0000 C   0  0  0  0  0  0  0  0  0  0  0  0
    5.1175   -1.1451    0.0000 C   0  0  0  0  0  0  0  0  0  0  0  0
    4.3069   -1.2989    0.0000 O   0  0  0  0  0  0  0  0  0  0  0  0
    5.6559   -1.7702    0.0000 O   0  0  0  0  0  0  0  0  0  0  0  0
    5.3837   -2.5491    0.0000 C   0  0  0  0  0  0  0  0  0  0  0  0
    4.8512    0.2588    0.0000 C   0  0  0  0  0  0  0  0  0  0  0  0
    5.6618    0.4125    0.0000 H   0  0  0  0  0  0  0  0  0  0  0  0
    4.0407    0.1050    0.0000 C   0  0  0  0  0  0  0  0  0  0  0  0
    3.5023    0.7301    0.0000 C   0  0  0  0  0  0  0  0  0  0  0  0
    2.9638    1.3552    0.0000 H   0  0  0  0  0  0  0  0  0  0  0  0
    3.7744    1.5090    0.0000 N   0  0  0  0  0  0  0  0  0  0  0  0
    3.2360    2.1341    0.0000 C   0  0  0  0  0  0  0  0  0  0  0  0
    2.4254    1.9803    0.0000 C   0  0  0  0  0  0  0  0  0  0  0  0
    2.1533    1.2015    0.0000 C   0  0  0  0  0  0  0  0  0  0  0  0
    2.6917    0.5764    0.0000 C   0  0  0  0  0  0  0  0  0  0  0  0
    2.2636   -0.1288    0.0000 N   0  0  0  0  0  0  0  0  0  0  0  0
    1.4606    0.0604    0.0000 C   0  0  0  0  0  0  0  0  0  0  0  0
    0.7826   -0.4097    0.0000 C   0  0  0  0  0  0  0  0  0  0  0  0
    0.0365   -0.0576    0.0000 C   0  0  0  0  0  0  0  0  0  0  0  0
   -0.6414   -0.5277    0.0000 O   0  0  0  0  0  0  0  0  0  0  0  0
   -0.5733   -1.3499    0.0000 C   0  0  0  0  0  0  0  0  0  0  0  0
   -0.0316    0.7646    0.0000 C   0  0  0  0  0  0  0  0  0  0  0  0
    0.6463    1.2347    0.0000 C   0  0  0  0  0  0  0  0  0  0  0  0
    1.3924    0.8826    0.0000 C   0  0  0  0  0  0  0  0  0  0  0  0
    4.5850    1.6627    0.0000 C   0  0  0  0  0  0  0  0  0  0  0  0
  2  1  1  6
  2  3  1  0
  4  3  1  0
  4  5  1  1
  5  6  1  0
  6  7  2  0
  6  8  1  0
  8  9  2  0
  9 10  1  0
 10 11  1  0
 11 12  1  0
 10 13  2  0
 13 14  1  0
 14 15  1  0
 15 16  2  0
 15 17  1  0
 17 18  1  0
 18 19  1  0
 13 20  1  0
 20 21  1  0
 21 22  1  0
 20 23  2  0
  8 23  1  0
 24  4  1  0
 24 25  1  6
 25 26  1  0
 24 27  1  0
 27 28  1  1
 28 29  2  0
 28 30  1  0
 30 31  1  0
 27 32  1  0
 32  2  1  0
 32 33  1  6
 32 34  1  0
 35 34  1  0
 35 36  1  1
 35 37  1  0
 37 38  1  0
 38 39  1  0
 39 40  1  0
 40 41  2  0
 35 41  1  0
 41 42  1  0
 42 43  1  0
 43 44  2  0
 44 45  1  0
 45 46  1  0
 46 47  1  0
 45 48  2  0
 48 49  1  0
 49 50  2  0
 40 50  1  0
 43 50  1  0
 37 51  1  0
  2 51  1  0
M  END
>  <DATABASE_ID>  (1) 
DB19379

>  <DATABASE_NAME>  (1) 
drugbank

>  <SMILES>  (1) 
[H][C@]12C[C@@H](OC(=O)C3=CC(OC)=C(OC(=O)OCC)C(OC)=C3)[C@H](OC)[C@@H](C(=O)OC)[C@@]1([H])C[C@@]1([H])N(CCC3=C1NC1=CC(OC)=CC=C31)C2

>  <INCHI_IDENTIFIER>  (1) 
InChI=1S/C35H42N2O11/c1-7-46-35(40)48-31-26(42-3)12-18(13-27(31)43-4)33(38)47-28-14-19-17-37-11-10-22-21-9-8-20(41-2)15-24(21)36-30(22)25(37)16-23(19)29(32(28)44-5)34(39)45-6/h8-9,12-13,15,19,23,25,28-29,32,36H,7,10-11,14,16-17H2,1-6H3/t19-,23-,25+,28-,29+,32+/m1/s1

>  <INCHI_KEY>  (1) 
ZCDNRPPFBQDQHR-SSYATKPKSA-N

>  <FORMULA>  (1) 
C35H42N2O11

>  <MOLECULAR_WEIGHT>  (1) 
666.724

>  <EXACT_MASS>  (1) 
666.27886018

>  <DRUGBANK_ID>  (1) 
DB19379

>  <DRUG_GROUPS>  (1) 
approved; withdrawn

>  <GENERIC_NAME>  (1) 
Syrosingopine

>  <SYNONYMS>  (1) 
Carbethoxysyringoyl methylreserpate; Isotense; Londomin; Methyl 18.beta.-hydroxy-11,17.alpha.-dimethoxy-3.beta.,20.alpha.-yohimban-16.beta.-carboxylate 4-hydroxy; Methyl carbethoxysyringoyl reserpate; Neoreserpan; Siringina; Yohimban-16-carboxylic acid, 18-((4-((ethoxycarbonyl)oxy)-3,5-dimethoxybenzoyl)oxy)-11,17-dimethoxy-, methyl ester, (3.beta.,16.beta.,17.alpha.,18.beta.,20.alpha.)-

$$$$
