
     RDKit          2D

  6  5  0  0  0  0  0  0  0  0999 V2000
    0.8250    1.4289    0.0000 O   0  0  0  0  0  0  0  0  0  0  0  0
    1.2375    0.7145    0.0000 C   0  0  0  0  0  0  0  0  0  0  0  0
    2.0625    0.7145    0.0000 O   0  0  0  0  0  0  0  0  0  0  0  0
    0.8250    0.0000    0.0000 C   0  0  0  0  0  0  0  0  0  0  0  0
    1.2375   -0.7145    0.0000 Cl  0  0  0  0  0  0  0  0  0  0  0  0
    0.0000    0.0000    0.0000 Cl  0  0  0  0  0  0  0  0  0  0  0  0
  1  2  1  0
  2  3  2  0
  2  4  1  0
  4  5  1  0
  4  6  1  0
M  END
>  <DATABASE_ID>  (1) 
DB08809

>  <DATABASE_NAME>  (1) 
drugbank

>  <SMILES>  (1) 
OC(=O)C(Cl)Cl

>  <INCHI_IDENTIFIER>  (1) 
InChI=1S/C2H2Cl2O2/c3-1(4)2(5)6/h1H,(H,5,6)

>  <INCHI_KEY>  (1) 
JXTHNDFMNIQAHM-UHFFFAOYSA-N

>  <FORMULA>  (1) 
C2H2Cl2O2

>  <MOLECULAR_WEIGHT>  (1) 
128.942

>  <EXACT_MASS>  (1) 
127.943184722

>  <JCHEM_ACCEPTOR_COUNT>  (1) 
2

>  <JCHEM_ATOM_COUNT>  (1) 
8

>  <JCHEM_AVERAGE_NEUTRAL_MICROSPECIES_CHARGE>  (1) 
-0.9999801863013905

>  <JCHEM_AVERAGE_POLARIZABILITY>  (1) 
9.323085177602705

>  <JCHEM_BIOAVAILABILITY>  (1) 
1

>  <JCHEM_DONOR_COUNT>  (1) 
1

>  <JCHEM_FORMAL_CHARGE>  (1) 
0

>  <JCHEM_GHOSE_FILTER>  (1) 
0

>  <JCHEM_IUPAC>  (1) 
2,2-dichloroacetic acid

>  <ALOGPS_LOGP>  (1) 
0.99

>  <JCHEM_LOGP>  (1) 
1.0581826133333334

>  <ALOGPS_LOGS>  (1) 
-0.25

>  <JCHEM_MDDR_LIKE_RULE>  (1) 
0

>  <JCHEM_NEUTRAL_CHARGE>  (1) 
-1

>  <JCHEM_NUMBER_OF_RINGS>  (1) 
0

>  <JCHEM_PHYSIOLOGICAL_CHARGE>  (1) 
-1

>  <JCHEM_PKA_STRONGEST_ACIDIC>  (1) 
2.2969741576208516

>  <JCHEM_POLAR_SURFACE_AREA>  (1) 
37.3

>  <JCHEM_REFRACTIVITY>  (1) 
22.6195

>  <JCHEM_ROTATABLE_BOND_COUNT>  (1) 
1

>  <JCHEM_RULE_OF_FIVE>  (1) 
1

>  <ALOGPS_SOLUBILITY>  (1) 
7.23e+01 g/l

>  <JCHEM_TRADITIONAL_IUPAC>  (1) 
biotin

>  <JCHEM_VEBER_RULE>  (1) 
1

>  <DRUGBANK_ID>  (1) 
DB08809

>  <DRUG_GROUPS>  (1) 
approved; investigational; withdrawn

>  <GENERIC_NAME>  (1) 
Dichloroacetic acid

>  <SYNONYMS>  (1) 
DCA; Dichloracetic acid; Dichloroacetate; Dichloroacetic acid

>  <PRODUCTS>  (1) 
Bichloracetic Acid 100%

>  <SALTS>  (1) 
Sodium dichloroacetate

$$$$
