
     RDKit          2D

  1  0  0  0  0  0  0  0  0  0999 V2000
    0.0000    0.0000    0.0000 Al  0  0  0  0  0  3  0  0  0  0  0  0
M  END
>  <DATABASE_ID>  (1) 
DB01370

>  <DATABASE_NAME>  (1) 
drugbank

>  <SMILES>  (1) 
[Al]

>  <INCHI_IDENTIFIER>  (1) 
InChI=1S/Al

>  <INCHI_KEY>  (1) 
XAGFODPZIPBFFR-UHFFFAOYSA-N

>  <FORMULA>  (1) 
Al

>  <MOLECULAR_WEIGHT>  (1) 
26.9815

>  <EXACT_MASS>  (1) 
26.981538441

>  <JCHEM_ACCEPTOR_COUNT>  (1) 
0

>  <JCHEM_ATOM_COUNT>  (1) 
1

>  <JCHEM_AVERAGE_NEUTRAL_MICROSPECIES_CHARGE>  (1) 
0.0

>  <JCHEM_AVERAGE_POLARIZABILITY>  (1) 
1.7784

>  <JCHEM_BIOAVAILABILITY>  (1) 
1

>  <JCHEM_DONOR_COUNT>  (1) 
0

>  <JCHEM_FORMAL_CHARGE>  (1) 
0

>  <JCHEM_GHOSE_FILTER>  (1) 
0

>  <JCHEM_IUPAC>  (1) 
aluminium

>  <JCHEM_LOGP>  (1) 
1.4499999999999997

>  <JCHEM_MDDR_LIKE_RULE>  (1) 
0

>  <JCHEM_NEUTRAL_CHARGE>  (1) 
0

>  <JCHEM_NUMBER_OF_RINGS>  (1) 
0

>  <JCHEM_PHYSIOLOGICAL_CHARGE>  (1) 
0

>  <JCHEM_POLAR_SURFACE_AREA>  (1) 
0.0

>  <JCHEM_REFRACTIVITY>  (1) 
0.0

>  <JCHEM_ROTATABLE_BOND_COUNT>  (1) 
0

>  <JCHEM_RULE_OF_FIVE>  (1) 
1

>  <JCHEM_TRADITIONAL_IUPAC>  (1) 
ethane

>  <JCHEM_VEBER_RULE>  (1) 
1

>  <DRUGBANK_ID>  (1) 
DB01370

>  <SECONDARY_ACCESSION_NUMBERS>  (1) 
DB11314

>  <DRUG_GROUPS>  (1) 
approved; investigational; withdrawn

>  <GENERIC_NAME>  (1) 
Aluminium

>  <SYNONYMS>  (1) 
Al; Aluminio; Aluminium; Aluminium atom; Aluminium metallicum; Aluminum; Aluminum metal; Aluminum powder; Metallic aluminum

$$$$
