
     RDKit          2D

 16 16  0  0  0  0  0  0  0  0999 V2000
    2.5875    2.3582    0.0000 C   0  0  0  0  0  0  0  0  0  0  0  0
    2.0572    1.7262    0.0000 C   0  0  0  0  0  0  0  0  0  0  0  0
    1.2448    1.8695    0.0000 C   0  0  0  0  0  0  0  0  0  0  0  0
    0.7145    1.2375    0.0000 C   0  0  0  0  0  0  0  0  0  0  0  0
    1.4289    0.8250    0.0000 C   0  0  0  0  0  0  0  0  0  0  0  0
    2.2359    0.9965    0.0000 O   0  0  0  0  0  0  0  0  0  0  0  0
    1.4289   -0.0000    0.0000 N   0  0  0  0  0  0  0  0  0  0  0  0
    0.7145   -0.4125    0.0000 C   0  0  0  0  0  0  0  0  0  0  0  0
    0.7145   -1.2375    0.0000 O   0  0  0  0  0  0  0  0  0  0  0  0
    0.0000    0.0000    0.0000 N   0  0  0  0  0  0  0  0  0  0  0  0
    0.0000    0.8250    0.0000 C   0  0  0  0  0  0  0  0  0  0  0  0
   -0.7145    1.2375    0.0000 O   0  0  0  0  0  0  0  0  0  0  0  0
    0.1842    1.8695    0.0000 C   0  0  0  0  0  0  0  0  0  0  0  0
    0.4663    2.6447    0.0000 C   0  0  0  0  0  0  0  0  0  0  0  0
   -0.0640    3.2767    0.0000 C   0  0  0  0  0  0  0  0  0  0  0  0
    2.5652    1.0761    0.0000 O   0  0  0  0  0  0  0  0  0  0  0  0
  1  2  1  0
  2  3  1  0
  3  4  1  0
  4  5  1  0
  5  6  2  0
  5  7  1  0
  7  8  1  0
  8  9  2  0
  8 10  1  0
 10 11  1  0
  4 11  1  0
 11 12  2  0
  4 13  1  0
 13 14  1  0
 14 15  2  0
  2 16  1  0
M  END
>  <DATABASE_ID>  (1) 
DB13253

>  <DATABASE_NAME>  (1) 
drugbank

>  <SMILES>  (1) 
CC(O)CC1(CC=C)C(=O)NC(=O)NC1=O

>  <INCHI_IDENTIFIER>  (1) 
InChI=1S/C10H14N2O4/c1-3-4-10(5-6(2)13)7(14)11-9(16)12-8(10)15/h3,6,13H,1,4-5H2,2H3,(H2,11,12,14,15,16)

>  <INCHI_KEY>  (1) 
VNLMRPAWAMPLNZ-UHFFFAOYSA-N

>  <FORMULA>  (1) 
C10H14N2O4

>  <MOLECULAR_WEIGHT>  (1) 
226.232

>  <EXACT_MASS>  (1) 
226.095356939

>  <JCHEM_ACCEPTOR_COUNT>  (1) 
4

>  <JCHEM_ATOM_COUNT>  (1) 
30

>  <JCHEM_AVERAGE_POLARIZABILITY>  (1) 
21.35405585428457

>  <JCHEM_BIOAVAILABILITY>  (1) 
1

>  <JCHEM_DONOR_COUNT>  (1) 
3

>  <JCHEM_FORMAL_CHARGE>  (1) 
0

>  <JCHEM_GHOSE_FILTER>  (1) 
1

>  <JCHEM_IUPAC>  (1) 
5-(2-hydroxypropyl)-5-(prop-2-en-1-yl)-1,3-diazinane-2,4,6-trione

>  <ALOGPS_LOGP>  (1) 
-0.13

>  <JCHEM_LOGP>  (1) 
-0.16242809300000055

>  <ALOGPS_LOGS>  (1) 
-0.98

>  <JCHEM_MDDR_LIKE_RULE>  (1) 
0

>  <JCHEM_NUMBER_OF_RINGS>  (1) 
1

>  <JCHEM_PHYSIOLOGICAL_CHARGE>  (1) 
0

>  <JCHEM_PKA>  (1) 
10.8502603583411

>  <JCHEM_PKA_STRONGEST_ACIDIC>  (1) 
7.180537830672995

>  <JCHEM_PKA_STRONGEST_BASIC>  (1) 
-2.5335674239453834

>  <JCHEM_POLAR_SURFACE_AREA>  (1) 
95.50000000000001

>  <JCHEM_REFRACTIVITY>  (1) 
55.2449

>  <JCHEM_ROTATABLE_BOND_COUNT>  (1) 
4

>  <JCHEM_RULE_OF_FIVE>  (1) 
1

>  <ALOGPS_SOLUBILITY>  (1) 
2.35e+01 g/l

>  <JCHEM_TRADITIONAL_IUPAC>  (1) 
proxibarbital

>  <JCHEM_VEBER_RULE>  (1) 
0

>  <DRUGBANK_ID>  (1) 
DB13253

>  <DRUG_GROUPS>  (1) 
approved

>  <GENERIC_NAME>  (1) 
Proxibarbal

>  <SYNONYMS>  (1) 
Proxibarbal

$$$$
