
     RDKit          2D

  4  3  0  0  0  0  0  0  0  0999 V2000
   -0.2062    0.3572    0.0000 B   0  0  0  0  0  0  0  0  0  0  0  0
   -1.0312    0.3572    0.0000 O   0  0  0  0  0  0  0  0  0  0  0  0
    1.0312   -0.3572    0.0000 O   0  0  0  0  0  0  0  0  0  0  0  0
    0.2062   -0.3572    0.0000 O   0  0  0  0  0  0  0  0  0  0  0  0
  2  1  2  0
  4  1  1  0
  4  3  1  0
M  END
>  <DATABASE_ID>  (1) 
DB13235

>  <DATABASE_NAME>  (1) 
drugbank

>  <SMILES>  (1) 
OOB=O

>  <INCHI_IDENTIFIER>  (1) 
InChI=1S/BHO3/c2-1-4-3/h3H

>  <INCHI_KEY>  (1) 
PEYVWSJAZONVQK-UHFFFAOYSA-N

>  <FORMULA>  (1) 
BHO3

>  <MOLECULAR_WEIGHT>  (1) 
59.82

>  <EXACT_MASS>  (1) 
60.001874

>  <JCHEM_ACCEPTOR_COUNT>  (1) 
2

>  <JCHEM_ATOM_COUNT>  (1) 
5

>  <JCHEM_AVERAGE_POLARIZABILITY>  (1) 
4.265874052077527

>  <JCHEM_BIOAVAILABILITY>  (1) 
1

>  <JCHEM_DONOR_COUNT>  (1) 
1

>  <JCHEM_FORMAL_CHARGE>  (1) 
0

>  <JCHEM_GHOSE_FILTER>  (1) 
0

>  <JCHEM_IUPAC>  (1) 
boranoylperoxol

>  <JCHEM_LOGP>  (1) 
0.4836000000000002

>  <JCHEM_MDDR_LIKE_RULE>  (1) 
0

>  <JCHEM_NUMBER_OF_RINGS>  (1) 
0

>  <JCHEM_PHYSIOLOGICAL_CHARGE>  (1) 
0

>  <JCHEM_PKA_STRONGEST_ACIDIC>  (1) 
7.469728177757184

>  <JCHEM_PKA_STRONGEST_BASIC>  (1) 
-6.092540895051475

>  <JCHEM_POLAR_SURFACE_AREA>  (1) 
46.53

>  <JCHEM_REFRACTIVITY>  (1) 
5.3577

>  <JCHEM_ROTATABLE_BOND_COUNT>  (1) 
1

>  <JCHEM_RULE_OF_FIVE>  (1) 
1

>  <JCHEM_TRADITIONAL_IUPAC>  (1) 
boranoylperoxol

>  <JCHEM_VEBER_RULE>  (1) 
0

>  <DRUGBANK_ID>  (1) 
DB13235

>  <DRUG_GROUPS>  (1) 
approved

>  <GENERIC_NAME>  (1) 
Perboric acid

>  <SYNONYMS>  (1) 
Perboric acid

>  <PRODUCTS>  (1) 
Amosan Oral Wound Cleanser; Amosan Wound Cleanser Cherry Flavour

>  <SALTS>  (1) 
Sodium perborate; Sodium perborate monohydrate

$$$$
