
     RDKit          2D

104109  0  0  1  0  0  0  0  0999 V2000
    0.7291    7.9858    0.0000 C   0  0  0  0  0  0  0  0  0  0  0  0
    0.3166    7.2713    0.0000 C   0  0  0  0  0  0  0  0  0  0  0  0
    0.7291    6.5569    0.0000 O   0  0  0  0  0  0  0  0  0  0  0  0
   -0.5083    7.2713    0.0000 O   0  0  0  0  0  0  0  0  0  0  0  0
    3.7345    7.9858    0.0000 C   0  0  0  0  0  0  0  0  0  0  0  0
    3.3220    7.2713    0.0000 C   0  0  0  0  0  0  0  0  0  0  0  0
    3.7345    6.5569    0.0000 O   0  0  0  0  0  0  0  0  0  0  0  0
    2.4970    7.2713    0.0000 O   0  0  0  0  0  0  0  0  0  0  0  0
   -6.6678    4.9069    0.0000 C   0  0  0  0  0  0  0  0  0  0  0  0
   -6.4129    4.1222    0.0000 C   0  0  0  0  0  0  0  0  0  0  0  0
   -5.6059    3.9507    0.0000 N   0  0  0  0  0  0  0  0  0  0  0  0
   -5.3510    3.1661    0.0000 C   0  0  0  0  0  0  0  0  0  0  0  0
   -5.9030    2.5530    0.0000 O   0  0  0  0  0  0  0  0  0  0  0  0
   -4.5440    2.9946    0.0000 C   0  0  0  0  0  0  0  0  0  0  0  0
   -3.9309    3.5466    0.0000 C   0  0  0  0  0  0  0  0  0  0  0  0
   -3.2164    3.1341    0.0000 C   0  0  0  0  0  0  0  0  0  0  0  0
   -3.3880    2.3271    0.0000 C   0  0  0  0  0  0  0  0  0  0  0  0
   -4.2085    2.2409    0.0000 N   0  0  0  0  0  0  0  0  0  0  0  0
   -4.6210    1.5264    0.0000 C   0  0  0  0  0  0  0  0  0  0  0  0
   -5.4460    1.5264    0.0000 O   0  0  0  0  0  0  0  0  0  0  0  0
   -4.2085    0.8120    0.0000 C   0  0  0  0  0  0  0  0  0  0  0  0
   -4.6210    0.0975    0.0000 C   0  0  0  0  0  0  0  0  0  0  0  0
   -5.4460    0.0975    0.0000 C   0  0  0  0  0  0  0  0  0  0  0  0
   -5.8585   -0.6169    0.0000 C   0  0  0  0  0  0  0  0  0  0  0  0
   -6.6835   -0.6169    0.0000 N   0  0  0  0  0  0  0  0  0  0  0  0
   -7.0960   -1.3314    0.0000 C   0  0  0  0  0  0  0  0  0  0  0  0
   -6.6835   -2.0458    0.0000 N   0  0  0  0  0  0  0  0  0  0  0  0
   -7.9210   -1.3314    0.0000 N   0  0  0  0  0  0  0  0  0  0  0  0
   -3.3835    0.8120    0.0000 N   0  0  0  0  0  0  0  0  0  0  0  0
   -2.9710    0.0975    0.0000 C   0  0  0  0  0  0  0  0  0  0  0  0
   -3.3835   -0.6169    0.0000 O   0  0  0  0  0  0  0  0  0  0  0  0
   -2.1460    0.0975    0.0000 C   0  0  0  0  0  0  0  0  0  0  0  0
   -1.7335    0.8120    0.0000 C   0  0  0  0  0  0  0  0  0  0  0  0
   -2.1460    1.5264    0.0000 C   0  0  0  0  0  0  0  0  0  0  0  0
   -2.9710    1.5264    0.0000 C   0  0  0  0  0  0  0  0  0  0  0  0
   -1.7335    2.2409    0.0000 C   0  0  0  0  0  0  0  0  0  0  0  0
   -1.7335   -0.6169    0.0000 N   0  0  0  0  0  0  0  0  0  0  0  0
   -0.9085   -0.6169    0.0000 C   0  0  0  0  0  0  0  0  0  0  0  0
   -0.4960    0.0975    0.0000 O   0  0  0  0  0  0  0  0  0  0  0  0
   -0.4960   -1.3314    0.0000 C   0  0  0  0  0  0  0  0  0  0  0  0
   -0.9085   -2.0458    0.0000 C   0  0  0  0  0  0  0  0  0  0  0  0
   -1.7335   -2.0458    0.0000 C   0  0  0  0  0  0  0  0  0  0  0  0
   -2.2184   -2.7133    0.0000 C   0  0  0  0  0  0  0  0  0  0  0  0
   -3.0030   -2.4583    0.0000 N   0  0  0  0  0  0  0  0  0  0  0  0
   -3.6705   -2.9432    0.0000 C   0  0  0  0  0  0  0  0  0  0  0  0
   -4.4241   -2.6077    0.0000 C   0  0  0  0  0  0  0  0  0  0  0  0
   -5.0915   -3.0926    0.0000 C   0  0  0  0  0  0  0  0  0  0  0  0
   -5.8452   -2.7571    0.0000 C   0  0  0  0  0  0  0  0  0  0  0  0
   -5.9315   -1.9366    0.0000 C   0  0  0  0  0  0  0  0  0  0  0  0
   -5.2640   -1.4517    0.0000 C   0  0  0  0  0  0  0  0  0  0  0  0
   -4.5103   -1.7872    0.0000 C   0  0  0  0  0  0  0  0  0  0  0  0
   -3.0030   -1.6333    0.0000 C   0  0  0  0  0  0  0  0  0  0  0  0
   -2.2184   -1.3784    0.0000 N   0  0  0  0  0  0  0  0  0  0  0  0
    0.3289   -1.3314    0.0000 N   0  0  0  0  0  0  0  0  0  0  0  0
    0.7414   -2.0458    0.0000 C   0  0  0  0  0  0  0  0  0  0  0  0
    0.3289   -2.7603    0.0000 O   0  0  0  0  0  0  0  0  0  0  0  0
    1.5664   -2.0458    0.0000 C   0  0  0  0  0  0  0  0  0  0  0  0
    1.9789   -1.3314    0.0000 C   0  0  0  0  0  0  0  0  0  0  0  0
    1.5664   -0.6169    0.0000 C   0  0  0  0  0  0  0  0  0  0  0  0
    0.7414   -0.6169    0.0000 C   0  0  0  0  0  0  0  0  0  0  0  0
    0.3289    0.0975    0.0000 C   0  0  0  0  0  0  0  0  0  0  0  0
    0.7414    0.8120    0.0000 C   0  0  0  0  0  0  0  0  0  0  0  0
    0.3289    1.5264    0.0000 O   0  0  0  0  0  0  0  0  0  0  0  0
    1.5664    0.8120    0.0000 C   0  0  0  0  0  0  0  0  0  0  0  0
    1.9789    0.0975    0.0000 C   0  0  0  0  0  0  0  0  0  0  0  0
    1.9789   -2.7603    0.0000 N   0  0  0  0  0  0  0  0  0  0  0  0
    2.8039   -2.7603    0.0000 C   0  0  0  0  0  0  0  0  0  0  0  0
    3.2164   -2.0458    0.0000 O   0  0  0  0  0  0  0  0  0  0  0  0
    3.2164   -3.4748    0.0000 C   0  0  0  0  0  0  0  0  0  0  0  0
    2.8039   -4.1893    0.0000 C   0  0  0  0  0  0  0  0  0  0  0  0
    1.9789   -4.1893    0.0000 O   0  0  0  0  0  0  0  0  0  0  0  0
    4.0414   -3.4748    0.0000 N   0  0  0  0  0  0  0  0  0  0  0  0
    4.4539   -4.1893    0.0000 C   0  0  0  0  0  0  0  0  0  0  0  0
    4.0414   -4.9037    0.0000 O   0  0  0  0  0  0  0  0  0  0  0  0
    5.2789   -4.1893    0.0000 C   0  0  0  0  0  0  0  0  0  0  0  0
    5.6914   -4.9037    0.0000 C   0  0  0  0  0  0  0  0  0  0  0  0
    5.2789   -5.6182    0.0000 C   0  0  0  0  0  0  0  0  0  0  0  0
    4.4585   -5.7044    0.0000 C   0  0  0  0  0  0  0  0  0  0  0  0
    4.2870   -6.5114    0.0000 N   0  0  0  0  0  0  0  0  0  0  0  0
    5.0014   -6.9239    0.0000 C   0  0  0  0  0  0  0  0  0  0  0  0
    5.6145   -6.3719    0.0000 C   0  0  0  0  0  0  0  0  0  0  0  0
    6.3991   -6.6268    0.0000 C   0  0  0  0  0  0  0  0  0  0  0  0
    6.5706   -7.4338    0.0000 C   0  0  0  0  0  0  0  0  0  0  0  0
    5.9576   -7.9858    0.0000 C   0  0  0  0  0  0  0  0  0  0  0  0
    5.1729   -7.7309    0.0000 C   0  0  0  0  0  0  0  0  0  0  0  0
    5.6914   -3.4748    0.0000 N   0  0  0  0  0  0  0  0  0  0  0  0
    5.2789   -2.7603    0.0000 C   0  0  0  0  0  0  0  0  0  0  0  0
    4.4539   -2.7603    0.0000 O   0  0  0  0  0  0  0  0  0  0  0  0
    5.6914   -2.0458    0.0000 C   0  0  0  0  0  0  0  0  0  0  0  0
    6.5164   -2.0458    0.0000 C   0  0  0  0  0  0  0  0  0  0  0  0
    6.9289   -2.7603    0.0000 C   0  0  0  0  0  0  0  0  0  0  0  0
    7.7494   -2.8465    0.0000 C   0  0  0  0  0  0  0  0  0  0  0  0
    7.9210   -3.6535    0.0000 N   0  0  0  0  0  0  0  0  0  0  0  0
    7.2065   -4.0660    0.0000 C   0  0  0  0  0  0  0  0  0  0  0  0
    6.5934   -3.5140    0.0000 N   0  0  0  0  0  0  0  0  0  0  0  0
    5.2789   -1.3314    0.0000 N   0  0  0  0  0  0  0  0  0  0  0  0
    5.6914   -0.6169    0.0000 C   0  0  0  0  0  0  0  0  0  0  0  0
    6.5164   -0.6169    0.0000 O   0  0  0  0  0  0  0  0  0  0  0  0
    5.2789    0.0975    0.0000 C   0  0  0  0  0  0  0  0  0  0  0  0
    5.6145    0.8512    0.0000 C   0  0  0  0  0  0  0  0  0  0  0  0
    5.0014    1.4032    0.0000 C   0  0  0  0  0  0  0  0  0  0  0  0
    4.2870    0.9907    0.0000 C   0  0  0  0  0  0  0  0  0  0  0  0
    3.5333    1.3262    0.0000 O   0  0  0  0  0  0  0  0  0  0  0  0
    4.4585    0.1837    0.0000 N   0  0  0  0  0  0  0  0  0  0  0  0
  1  2  1  0
  2  3  1  0
  2  4  2  0
  5  6  1  0
  6  7  1  0
  6  8  2  0
  9 10  1  0
 10 11  1  0
 11 12  1  0
 12 13  2  0
 14 12  1  6
 14 15  1  0
 15 16  1  0
 16 17  1  0
 17 18  1  0
 14 18  1  0
 18 19  1  0
 19 20  2  0
 21 19  1  0
 21 22  1  1
 22 23  1  0
 23 24  1  0
 24 25  1  0
 25 26  1  0
 26 27  1  0
 26 28  2  0
 21 29  1  0
 29 30  1  0
 30 31  2  0
 32 30  1  0
 32 33  1  6
 33 34  1  0
 34 35  1  0
 34 36  1  0
 32 37  1  0
 37 38  1  0
 38 39  2  0
 40 38  1  0
 40 41  1  6
 41 42  1  0
 42 43  2  0
 43 44  1  0
 44 45  1  0
 45 46  1  0
 46 47  2  0
 47 48  1  0
 48 49  2  0
 49 50  1  0
 50 51  2  0
 46 51  1  0
 44 52  1  0
 52 53  2  0
 42 53  1  0
 40 54  1  0
 54 55  1  0
 55 56  2  0
 57 55  1  0
 57 58  1  6
 58 59  1  0
 59 60  2  0
 60 61  1  0
 61 62  2  0
 62 63  1  0
 62 64  1  0
 64 65  2  0
 59 65  1  0
 57 66  1  0
 66 67  1  0
 67 68  2  0
 69 67  1  0
 69 70  1  1
 70 71  1  0
 69 72  1  0
 72 73  1  0
 73 74  2  0
 75 73  1  0
 75 76  1  1
 76 77  1  0
 77 78  2  0
 78 79  1  0
 79 80  1  0
 80 81  2  0
 77 81  1  0
 81 82  1  0
 82 83  2  0
 83 84  1  0
 84 85  2  0
 80 85  1  0
 75 86  1  0
 86 87  1  0
 87 88  2  0
 89 87  1  0
 89 90  1  1
 90 91  1  0
 91 92  2  0
 92 93  1  0
 93 94  1  0
 94 95  2  0
 91 95  1  0
 89 96  1  0
 96 97  1  0
 97 98  2  0
 99 97  1  1
 99100  1  0
100101  1  0
101102  1  0
102103  2  0
102104  1  0
 99104  1  0
M  END
>  <DATABASE_ID>  (1) 
DB06788

>  <DATABASE_NAME>  (1) 
drugbank

>  <SMILES>  (1) 
CC(O)=O.CC(O)=O.CCNC(=O)[C@@H]1CCCN1C(=O)[C@H](CCCNC(N)=N)NC(=O)[C@H](CC(C)C)NC(=O)[C@@H](CC1=CN(CC2=CC=CC=C2)C=N1)NC(=O)[C@H](CC1=CC=C(O)C=C1)NC(=O)[C@H](CO)NC(=O)[C@H](CC1=CNC2=C1C=CC=C2)NC(=O)[C@H](CC1=CNC=N1)NC(=O)[C@@H]1CCC(=O)N1

>  <INCHI_IDENTIFIER>  (1) 
InChI=1S/C66H86N18O12.2C2H4O2/c1-4-70-64(95)55-17-11-25-84(55)65(96)48(16-10-24-71-66(67)68)76-58(89)49(26-38(2)3)77-62(93)53(30-43-34-83(37-74-43)33-40-12-6-5-7-13-40)81-59(90)50(27-39-18-20-44(86)21-19-39)78-63(94)54(35-85)82-60(91)51(28-41-31-72-46-15-9-8-14-45(41)46)79-61(92)52(29-42-32-69-36-73-42)80-57(88)47-22-23-56(87)75-47;2*1-2(3)4/h5-9,12-15,18-21,31-32,34,36-38,47-55,72,85-86H,4,10-11,16-17,22-30,33,35H2,1-3H3,(H,69,73)(H,70,95)(H,75,87)(H,76,89)(H,77,93)(H,78,94)(H,79,92)(H,80,88)(H,81,90)(H,82,91)(H4,67,68,71);2*1H3,(H,3,4)/t47-,48-,49-,50-,51-,52-,53+,54-,55-;;/m0../s1

>  <INCHI_KEY>  (1) 
BKEMVGVBBDMHKL-VYFXDUNUSA-N

>  <FORMULA>  (1) 
C70H94N18O16

>  <MOLECULAR_WEIGHT>  (1) 
1443.632

>  <EXACT_MASS>  (1) 
1442.709519019

>  <JCHEM_ACCEPTOR_COUNT>  (1) 
17

>  <JCHEM_ATOM_COUNT>  (1) 
198

>  <JCHEM_AVERAGE_NEUTRAL_MICROSPECIES_CHARGE>  (1) 
1.382191134603653

>  <JCHEM_AVERAGE_POLARIZABILITY>  (1) 
138.34347836965958

>  <JCHEM_BIOAVAILABILITY>  (1) 
0

>  <JCHEM_DONOR_COUNT>  (1) 
16

>  <JCHEM_FORMAL_CHARGE>  (1) 
0

>  <JCHEM_GHOSE_FILTER>  (1) 
0

>  <JCHEM_IUPAC>  (1) 
(2S)-1-[(2S)-2-[(2S)-2-[(2R)-3-(1-benzyl-1H-imidazol-4-yl)-2-[(2S)-2-[(2S)-3-hydroxy-2-[(2S)-2-[(2S)-3-(1H-imidazol-4-yl)-2-{[(2S)-5-oxopyrrolidin-2-yl]formamido}propanamido]-3-(1H-indol-3-yl)propanamido]propanamido]-3-(4-hydroxyphenyl)propanamido]propanamido]-4-methylpentanamido]-5-carbamimidamidopentanoyl]-N-ethylpyrrolidine-2-carboxamide; bis(acetic acid)

>  <JCHEM_LOGP>  (1) 
-2.138446574944563

>  <JCHEM_MDDR_LIKE_RULE>  (1) 
1

>  <JCHEM_NEUTRAL_CHARGE>  (1) 
1

>  <JCHEM_NUMBER_OF_RINGS>  (1) 
8

>  <JCHEM_PHYSIOLOGICAL_CHARGE>  (1) 
1

>  <JCHEM_PKA>  (1) 
11.002548506563544

>  <JCHEM_PKA_STRONGEST_ACIDIC>  (1) 
9.489842681360276

>  <JCHEM_PKA_STRONGEST_BASIC>  (1) 
11.590277135115848

>  <JCHEM_POLAR_SURFACE_AREA>  (1) 
446.85999999999984

>  <JCHEM_REFRACTIVITY>  (1) 
360.07339999999994

>  <JCHEM_ROTATABLE_BOND_COUNT>  (1) 
34

>  <JCHEM_RULE_OF_FIVE>  (1) 
0

>  <JCHEM_TRADITIONAL_IUPAC>  (1) 
(2S)-2-({4-[(2E)-N-({2-amino-4-oxo-1H-pyrido[3,2-d]pyrimidin-6-yl}methyl)-3-{5-carbamoyl-3-[(2R,3R,4S,5R)-3,4-dihydroxy-5-[(phosphonooxy)methyl]oxolan-2-yl]imidazol-4-yl}prop-2-enamido]phenyl}formamido)pentanedioic acid

>  <JCHEM_VEBER_RULE>  (1) 
0

>  <DRUGBANK_ID>  (1) 
DB06788

>  <DRUG_GROUPS>  (1) 
approved; investigational; withdrawn

>  <GENERIC_NAME>  (1) 
Histrelin

>  <SYNONYMS>  (1) 
[(im-Bzl)-D-His6,Pro9-NEt]-gonadotropin releasing hormone; 5-oxo-L-prolyl-L-histidyl-L-tryptophyl-L-seryl-L-tyrosyl-1-benzyl-D-histidyl-L-leucyl-L-arginyl-N-ethyl-L-prolinamide; 5-oxo-L-prolyl-L-histidyl-L-tryptophyl-L-seryl-L-tyrosyl-Nτ-benzyl-D-histidyl-L-leucyl-L-arginyl-N-ethyl-L-prolinamide	; Histrelin; histrelina; histreline; histrelinum; L-pyroglutamyl-L-histidyl-L-tryptophyl-L-seryl-L-tyrosyl-D-Nim-benzyl-histidyl-L-leucyl-L-arginyl-L-proline ethylamide

>  <PRODUCTS>  (1) 
Supprelin LA; Vantas

>  <INTERNATIONAL_BRANDS>  (1) 
Supprelin; Supprelin LA; Vantas

>  <SALTS>  (1) 
Histrelin acetate

$$$$
